<?xml version="1.0" encoding="UTF-8"?>

<!-- generated on 2025-11-20 20:46:00 by Eclipse SUMO GUI Version 1.24.0
<sumoConfiguration xmlns:xsi="http://www.w3.org/2001/XMLSchema-instance" xsi:noNamespaceSchemaLocation="http://sumo.dlr.de/xsd/sumoConfiguration.xsd">

    <input>
        <net-file value="/home/yarl/Desktop/sumo/tools/2025-11-19-05-32-17/osm.net.xml.gz"/>
        <route-files value="/home/yarl/Desktop/sumo/tools/2025-11-19-05-32-17/osm.bus.trips.xml,/home/yarl/Desktop/sumo/tools/2025-11-19-05-32-17/osm.motorcycle.trips.xml,/home/yarl/Desktop/sumo/tools/2025-11-19-05-32-17/osm.passenger.trips.xml,/home/yarl/Desktop/sumo/tools/2025-11-19-05-32-17/osm.tram.trips.xml,/home/yarl/Desktop/sumo/tools/2025-11-19-05-32-17/osm.truck.trips.xml"/>
        <additional-files value="/home/yarl/Desktop/sumo/tools/2025-11-19-05-32-17/osm.poly.xml.gz,/home/yarl/Desktop/sumo/tools/2025-11-19-05-32-17/output.add.xml"/>
    </input>

    <output>
        <tripinfo-output value="/home/yarl/Desktop/sumo/tools/2025-11-19-05-32-17/tripinfos.xml"/>
        <statistic-output value="/home/yarl/Desktop/sumo/tools/2025-11-19-05-32-17/stats.xml"/>
    </output>

    <processing>
        <ignore-route-errors value="true"/>
        <tls.actuated.jam-threshold value="30"/>
    </processing>

    <routing>
        <device.rerouting.adaptation-steps value="18"/>
        <device.rerouting.adaptation-interval value="10"/>
    </routing>

    <report>
        <verbose value="true"/>
        <duration-log.statistics value="true"/>
        <no-step-log value="true"/>
    </report>

    <gui_only>
        <gui-settings-file value="/home/yarl/Desktop/sumo/tools/2025-11-19-05-32-17/osm.view.xml"/>
    </gui_only>

</sumoConfiguration>
