<?xml version="1.0" encoding="UTF-8"?>

<!-- generated on 2025-11-19 05:32:41.380737 by osmWebWizard.py v1_24_0+0000-b72eb3fabc8
<configuration>
    <net-file value="/home/yarl/Desktop/sumo/tools/2025-11-19-05-32-17/osm.net.xml.gz"/>
    <output-trip-file value="/home/yarl/Desktop/sumo/tools/2025-11-19-05-32-17/osm.bus.trips.xml"/>
    <route-file value="/home/yarl/Desktop/sumo/tools/2025-11-19-05-32-17/osm.bus.rou.xml"/>
    <prefix value="bus"/>
    <trip-attributes value="departLane=&quot;best&quot;"/>
    <fringe-start-attributes value="departSpeed=&quot;max&quot;"/>
    <vehicle-class value="bus"/>
    <fringe-factor value="5"/>
    <edge-permission value="bus"/>
    <via-edge-types value="highway.motorway,highway.motorway_link,highway.trunk_link,highway.primary_link,highway.secondary_link,highway.tertiary_link"/>
    <min-distance value="600.0"/>
    <min-distance.fringe value="10.0"/>
    <remove-loops value="True"/>
    <insertion-density value="8.0"/>
</configuration>
-->

<routes xmlns:xsi="http://www.w3.org/2001/XMLSchema-instance" xsi:noNamespaceSchemaLocation="http://sumo.dlr.de/xsd/routes_file.xsd">
    <vType id="bus_bus" vClass="bus"/>
    <trip id="bus0" depart="0.00" from="-401358083#7" to="-288039682#12" departLane="best" type="bus_bus"/>
    <trip id="bus1" depart="1.15" from="258025939#2" to="24024777#10" departLane="best" type="bus_bus"/>
    <trip id="bus2" depart="2.29" from="690187864#8" to="-1414763103#0" departLane="best" type="bus_bus"/>
    <trip id="bus3" depart="3.44" from="1185198486#3" to="-1222882871#1" departLane="best" type="bus_bus"/>
    <trip id="bus4" depart="4.59" from="-27083100#5" to="1409697563#1" departLane="best" type="bus_bus"/>
    <trip id="bus5" depart="5.74" from="-1222882862#1" to="-257724840#5" departLane="best" type="bus_bus"/>
    <trip id="bus6" depart="6.88" from="228182096#3" to="1428240092" departLane="best" type="bus_bus"/>
    <trip id="bus7" depart="8.03" from="-27083101#7" to="208472461#2" departLane="best" type="bus_bus"/>
    <trip id="bus8" depart="9.18" from="38566870#4" to="-1155278555#1" departLane="best" type="bus_bus"/>
    <trip id="bus9" depart="10.32" from="385204710#1" to="24041356#3" departLane="best" type="bus_bus"/>
    <trip id="bus10" depart="11.47" from="-691145130#2" to="-235260970#4" departLane="best" type="bus_bus"/>
    <trip id="bus11" depart="12.62" from="-1423481107#0" to="-1428240092" departLane="best" type="bus_bus"/>
    <trip id="bus12" depart="13.77" from="490727027#0" to="208514990#4" departLane="best" type="bus_bus"/>
    <trip id="bus13" depart="14.91" from="1414112452#1" to="912358838#4" departLane="best" type="bus_bus"/>
    <trip id="bus14" depart="16.06" from="-911222968#0" to="1446517203#1" departLane="best" type="bus_bus"/>
    <trip id="bus15" depart="17.21" from="455739176#3" to="214215470#1" departLane="best" type="bus_bus"/>
    <trip id="bus16" depart="18.35" from="53278703#8" to="189199969#1" departLane="best" type="bus_bus"/>
    <trip id="bus17" depart="19.50" from="24040756#0" to="-1312808648#4" departLane="best" type="bus_bus" departSpeed="max"/>
    <trip id="bus18" depart="20.65" from="-287994386" to="-53279867#5" departLane="best" type="bus_bus" departSpeed="max"/>
    <trip id="bus19" depart="21.80" from="-1409740304#3" to="-314480719#10" departLane="best" type="bus_bus"/>
    <trip id="bus20" depart="22.94" from="-1433199431#1" to="-50878504#1" departLane="best" type="bus_bus"/>
    <trip id="bus21" depart="24.09" from="216250083#3" to="-912374363#1" departLane="best" type="bus_bus"/>
    <trip id="bus22" depart="25.24" from="-911108005#0" to="-26642646#0" departLane="best" type="bus_bus"/>
    <trip id="bus23" depart="26.38" from="-38566687" to="694772681" departLane="best" type="bus_bus" departSpeed="max"/>
    <trip id="bus24" depart="27.53" from="228168651#2" to="208515007#1" departLane="best" type="bus_bus"/>
    <trip id="bus25" depart="28.68" from="-23989765#2" to="26642648#4" departLane="best" type="bus_bus"/>
    <trip id="bus26" depart="29.83" from="-23535107#13" to="1085142625#0" departLane="best" type="bus_bus"/>
    <trip id="bus27" depart="30.97" from="920732520#1" to="228943295#4" departLane="best" type="bus_bus"/>
    <trip id="bus28" depart="32.12" from="1424834371#1" to="24040599#2" departLane="best" type="bus_bus"/>
    <trip id="bus29" depart="33.27" from="487759852#29" to="334057433#3" departLane="best" type="bus_bus"/>
    <trip id="bus30" depart="34.41" from="-288039682#1" to="-1233264332#0" departLane="best" type="bus_bus"/>
    <trip id="bus31" depart="35.56" from="-26642644#17" to="781783320#10" departLane="best" type="bus_bus"/>
    <trip id="bus32" depart="36.71" from="619425211#2" to="-690355197" departLane="best" type="bus_bus"/>
    <trip id="bus33" depart="37.86" from="228767959#3" to="1156650711#1" departLane="best" type="bus_bus"/>
    <trip id="bus34" depart="39.00" from="691145137#20" to="1312808647#0" departLane="best" type="bus_bus"/>
    <trip id="bus35" depart="40.15" from="-385200736#1" to="-349962357#5" departLane="best" type="bus_bus"/>
    <trip id="bus36" depart="41.30" from="1427251622#1" to="-40941250#9" departLane="best" type="bus_bus"/>
    <trip id="bus37" depart="42.44" from="154454128#1" to="691143808#8" departLane="best" type="bus_bus"/>
    <trip id="bus38" depart="43.59" from="-949606414" to="-27108754#4" departLane="best" type="bus_bus"/>
    <trip id="bus39" depart="44.74" from="928099276#2" to="1409740303#1" departLane="best" type="bus_bus"/>
    <trip id="bus40" depart="45.89" from="-1422516689" to="-1320158817#1" departLane="best" type="bus_bus"/>
    <trip id="bus41" depart="47.03" from="-1449304890#27" to="22576030#5" departLane="best" type="bus_bus"/>
    <trip id="bus42" depart="48.18" from="341869009" to="1222741583#23" departLane="best" type="bus_bus"/>
    <trip id="bus43" depart="49.33" from="-1342321804#5" to="1085142672#2" departLane="best" type="bus_bus"/>
    <trip id="bus44" depart="50.47" from="928099276#1" to="1422516706" departLane="best" type="bus_bus"/>
    <trip id="bus45" depart="51.62" from="-1187506592#1" to="258025940#6" departLane="best" type="bus_bus"/>
    <trip id="bus46" depart="52.77" from="23979404#19" to="1424832066#8" departLane="best" type="bus_bus"/>
    <trip id="bus47" depart="53.92" from="-38566687" to="228944248#1" departLane="best" type="bus_bus" departSpeed="max"/>
    <trip id="bus48" depart="55.06" from="-1449304898" to="1222882872#1" departLane="best" type="bus_bus"/>
    <trip id="bus49" depart="56.21" from="1222882871#1" to="88497549#5" departLane="best" type="bus_bus"/>
    <trip id="bus50" depart="57.36" from="1347340107" to="-24040748#7" departLane="best" type="bus_bus"/>
    <trip id="bus51" depart="58.50" from="691145137#1" to="611632070#5" departLane="best" type="bus_bus"/>
    <trip id="bus52" depart="59.65" from="-50878504#8" to="228767959#3" departLane="best" type="bus_bus"/>
    <trip id="bus53" depart="60.80" from="208493039#1" to="-232715402#2" departLane="best" type="bus_bus"/>
    <trip id="bus54" depart="61.95" from="27108754#3" to="1427251602#0" departLane="best" type="bus_bus"/>
    <trip id="bus55" depart="63.09" from="314480719#13" to="1423481107#0" departLane="best" type="bus_bus"/>
    <trip id="bus56" depart="64.24" from="-103840645#2" to="-691215051#1" departLane="best" type="bus_bus"/>
    <trip id="bus57" depart="65.39" from="-1222741583#27" to="693651829#1" departLane="best" type="bus_bus"/>
    <trip id="bus58" depart="66.53" from="655430041#2" to="467058778#9" departLane="best" type="bus_bus"/>
    <trip id="bus59" depart="67.68" from="-53278703#3" to="-1334817306#4" departLane="best" type="bus_bus"/>
    <trip id="bus60" depart="68.83" from="652090756#3" to="87741571#4" departLane="best" type="bus_bus"/>
    <trip id="bus61" depart="69.98" from="-1414112453#1" to="1355096268#1" departLane="best" type="bus_bus"/>
    <trip id="bus62" depart="71.12" from="-1361117795#5" to="30992560#1" departLane="best" type="bus_bus"/>
    <trip id="bus63" depart="72.27" from="287993370#2" to="-208514985#2" departLane="best" type="bus_bus"/>
    <trip id="bus64" depart="73.42" from="1304966308#2" to="1433804585#1" departLane="best" type="bus_bus"/>
    <trip id="bus65" depart="74.56" from="-385200738#1" to="619425211#2" departLane="best" type="bus_bus"/>
    <trip id="bus66" depart="75.71" from="1185785532#1" to="-26642650#0" departLane="best" type="bus_bus"/>
    <trip id="bus67" depart="76.86" from="1414763097#2" to="26642650#1" departLane="best" type="bus_bus"/>
    <trip id="bus68" depart="78.01" from="-255768618#3" to="-690187867#0" departLane="best" type="bus_bus"/>
    <trip id="bus69" depart="79.15" from="1211482736#3" to="1414112453#3" departLane="best" type="bus_bus"/>
    <trip id="bus70" depart="80.30" from="-186752465#7" to="-289514709#1" departLane="best" type="bus_bus"/>
    <trip id="bus71" depart="81.45" from="-691145129#19" to="208472460#1" departLane="best" type="bus_bus"/>
    <trip id="bus72" depart="82.59" from="-288039682#3" to="-27109231#2" departLane="best" type="bus_bus"/>
    <trip id="bus73" depart="83.74" from="-1365663629" to="228168651#11" departLane="best" type="bus_bus" departSpeed="max"/>
    <trip id="bus74" depart="84.89" from="-288039682#0" to="691145131#11" departLane="best" type="bus_bus"/>
    <trip id="bus75" depart="86.04" from="53276944#0" to="-1387053958#2" departLane="best" type="bus_bus"/>
    <trip id="bus76" depart="87.18" from="-30992560#3" to="23979404#5" departLane="best" type="bus_bus"/>
    <trip id="bus77" depart="88.33" from="-26642648#2" to="-208514990#1" departLane="best" type="bus_bus"/>
    <trip id="bus78" depart="89.48" from="693656416#7" to="175953577#4" departLane="best" type="bus_bus"/>
    <trip id="bus79" depart="90.62" from="1300897071#17" to="354909940" departLane="best" type="bus_bus"/>
    <trip id="bus80" depart="91.77" from="38566693#2" to="-242456045#0" departLane="best" type="bus_bus"/>
    <trip id="bus81" depart="92.92" from="1185785532#4" to="1320158851#9" departLane="best" type="bus_bus"/>
    <trip id="bus82" depart="94.07" from="257692770#2" to="24011166#7" departLane="best" type="bus_bus"/>
    <trip id="bus83" depart="95.21" from="920675375#7" to="-1430220647" departLane="best" type="bus_bus"/>
    <trip id="bus84" depart="96.36" from="53278703#8" to="-375991982#0" departLane="best" type="bus_bus"/>
    <trip id="bus85" depart="97.51" from="-24041344#15" to="1279020894#1" departLane="best" type="bus_bus"/>
    <trip id="bus86" depart="98.65" from="1185198486#2" to="-50878504#5" departLane="best" type="bus_bus"/>
    <trip id="bus87" depart="99.80" from="-318705365#2" to="691339338#3" departLane="best" type="bus_bus" departSpeed="max"/>
    <trip id="bus88" depart="100.95" from="1423481107#2" to="-1320158851#4" departLane="best" type="bus_bus"/>
    <trip id="bus89" depart="102.10" from="949606414" to="487759852#18" departLane="best" type="bus_bus"/>
    <trip id="bus90" depart="103.24" from="911228758#0" to="692911407#0" departLane="best" type="bus_bus"/>
    <trip id="bus91" depart="104.39" from="496426080#0" to="-24011166#4" departLane="best" type="bus_bus" departSpeed="max"/>
    <trip id="bus92" depart="105.54" from="1320158852#6" to="-26642650#7" departLane="best" type="bus_bus"/>
    <trip id="bus93" depart="106.68" from="-385200738#2" to="354909940" departLane="best" type="bus_bus"/>
    <trip id="bus94" depart="107.83" from="1222882872#0" to="1222741583#28" departLane="best" type="bus_bus"/>
    <trip id="bus95" depart="108.98" from="911108198#1" to="925193172#8" departLane="best" type="bus_bus"/>
    <trip id="bus96" depart="110.13" from="1424832066#5" to="258025929#0" departLane="best" type="bus_bus"/>
    <trip id="bus97" depart="111.27" from="-228464702#3" to="-605261126#0" departLane="best" type="bus_bus"/>
    <trip id="bus98" depart="112.42" from="911227003" to="202361495#4" departLane="best" type="bus_bus"/>
    <trip id="bus99" depart="113.57" from="1414763099#3" to="275457445#0" departLane="best" type="bus_bus"/>
    <trip id="bus100" depart="114.71" from="-1334817300#2" to="208136405#0" departLane="best" type="bus_bus"/>
    <trip id="bus101" depart="115.86" from="1350005409#9" to="527979087" departLane="best" type="bus_bus"/>
    <trip id="bus102" depart="117.01" from="-228943295#4" to="911115753#0" departLane="best" type="bus_bus"/>
    <trip id="bus103" depart="118.16" from="-1409740305#0" to="-24041344#15" departLane="best" type="bus_bus"/>
    <trip id="bus104" depart="119.30" from="202361495#0" to="24024772#5" departLane="best" type="bus_bus"/>
    <trip id="bus105" depart="120.45" from="-30811931#1" to="-206984892#1" departLane="best" type="bus_bus"/>
    <trip id="bus106" depart="121.60" from="690187862#4" to="-349962357#3" departLane="best" type="bus_bus"/>
    <trip id="bus107" depart="122.74" from="189199969#7" to="214215519#0" departLane="best" type="bus_bus"/>
    <trip id="bus108" depart="123.89" from="1165287689" to="208136396#2" departLane="best" type="bus_bus"/>
    <trip id="bus109" depart="125.04" from="-30992562#1" to="1165287687#0" departLane="best" type="bus_bus"/>
    <trip id="bus110" depart="126.19" from="236481181" to="-605261126#8" departLane="best" type="bus_bus"/>
    <trip id="bus111" depart="127.33" from="-605093942#4" to="288039682#2" departLane="best" type="bus_bus"/>
    <trip id="bus112" depart="128.48" from="-1387053644#3" to="1305575502#0" departLane="best" type="bus_bus"/>
    <trip id="bus113" depart="129.63" from="-1387053958#4" to="-26642650#4" departLane="best" type="bus_bus"/>
    <trip id="bus114" depart="130.77" from="-385200738#2" to="693651833#9" departLane="best" type="bus_bus"/>
    <trip id="bus115" depart="131.92" from="663149777#0" to="682835013#1" departLane="best" type="bus_bus"/>
    <trip id="bus116" depart="133.07" from="-88498031" to="-23535107#18" departLane="best" type="bus_bus"/>
    <trip id="bus117" depart="134.22" from="466850669#0" to="247610443#1" departLane="best" type="bus_bus"/>
    <trip id="bus118" depart="135.36" from="208493039#24" to="920729948#2" departLane="best" type="bus_bus"/>
    <trip id="bus119" depart="136.51" from="228767496#1" to="-1155928948#1" departLane="best" type="bus_bus"/>
    <trip id="bus120" depart="137.66" from="233432897#4" to="702593086#3" departLane="best" type="bus_bus"/>
    <trip id="bus121" depart="138.80" from="-208514985#4" to="-186752465#1" departLane="best" type="bus_bus"/>
    <trip id="bus122" depart="139.95" from="-1449304890#10" to="1446864466#7" departLane="best" type="bus_bus"/>
    <trip id="bus123" depart="141.10" from="-394695278#4" to="208514990#6" departLane="best" type="bus_bus"/>
    <trip id="bus124" depart="142.25" from="242456045#2" to="-258487339#2" departLane="best" type="bus_bus"/>
    <trip id="bus125" depart="143.39" from="214215470#3" to="-42650756#1" departLane="best" type="bus_bus"/>
    <trip id="bus126" depart="144.54" from="1326103720" to="691145131#11" departLane="best" type="bus_bus"/>
    <trip id="bus127" depart="145.69" from="48795303#4" to="-1427251617#1" departLane="best" type="bus_bus"/>
    <trip id="bus128" depart="146.83" from="1185785532#4" to="-496426080#4" departLane="best" type="bus_bus"/>
    <trip id="bus129" depart="147.98" from="-1122250663" to="31541469#2" departLane="best" type="bus_bus"/>
    <trip id="bus130" depart="149.13" from="216728662#3" to="-40941250#14" departLane="best" type="bus_bus"/>
    <trip id="bus131" depart="150.28" from="26540252#1" to="1437043833" departLane="best" type="bus_bus"/>
    <trip id="bus132" depart="151.42" from="-1396148980#2" to="690187844#1" departLane="best" type="bus_bus"/>
    <trip id="bus133" depart="152.57" from="467058778#11" to="207895701#6" departLane="best" type="bus_bus"/>
    <trip id="bus134" depart="153.72" from="-216250083#4" to="-208514984#3" departLane="best" type="bus_bus"/>
    <trip id="bus135" depart="154.86" from="37370130#3" to="539985282#1" departLane="best" type="bus_bus"/>
    <trip id="bus136" depart="156.01" from="690504734" to="-26642646#2" departLane="best" type="bus_bus" departSpeed="max"/>
    <trip id="bus137" depart="157.16" from="-31541469#9" to="-1447621300#0" departLane="best" type="bus_bus"/>
    <trip id="bus138" depart="158.31" from="31452010#0" to="690187850#1" departLane="best" type="bus_bus" departSpeed="max"/>
    <trip id="bus139" depart="159.45" from="1103848385#1" to="216250083#4" departLane="best" type="bus_bus"/>
    <trip id="bus140" depart="160.60" from="-228464702#0" to="693651829#7" departLane="best" type="bus_bus"/>
    <trip id="bus141" depart="161.75" from="539985277#0" to="912368453#13" departLane="best" type="bus_bus"/>
    <trip id="bus142" depart="162.89" from="-1222741599#1" to="26902000#6" departLane="best" type="bus_bus"/>
    <trip id="bus143" depart="164.04" from="-690187867#1" to="693651833#11" departLane="best" type="bus_bus"/>
    <trip id="bus144" depart="165.19" from="385200732#7" to="548024820#0" departLane="best" type="bus_bus"/>
    <trip id="bus145" depart="166.34" from="394695278#3" to="-458343287#0" departLane="best" type="bus_bus"/>
    <trip id="bus146" depart="167.48" from="327360445" to="-1449304890#9" departLane="best" type="bus_bus" departSpeed="max"/>
    <trip id="bus147" depart="168.63" from="605261126#17" to="53279867#3" departLane="best" type="bus_bus"/>
    <trip id="bus148" depart="169.78" from="-27108754#3" to="410104708#0" departLane="best" type="bus_bus"/>
    <trip id="bus149" depart="170.92" from="1239813219#2" to="-682835982#0" departLane="best" type="bus_bus"/>
    <trip id="bus150" depart="172.07" from="37370130#0" to="-30811931#7" departLane="best" type="bus_bus"/>
    <trip id="bus151" depart="173.22" from="-1222741590#5" to="-247610446#0" departLane="best" type="bus_bus"/>
    <trip id="bus152" depart="174.37" from="-690187850#2" to="553531775#0" departLane="best" type="bus_bus"/>
    <trip id="bus153" depart="175.51" from="911222968#4" to="-50878504#8" departLane="best" type="bus_bus"/>
    <trip id="bus154" depart="176.66" from="920675374#0" to="1424832066#5" departLane="best" type="bus_bus"/>
    <trip id="bus155" depart="177.81" from="697666545#0" to="-186752465#1" departLane="best" type="bus_bus" departSpeed="max"/>
    <trip id="bus156" depart="178.95" from="911229691#2" to="-24040748#7" departLane="best" type="bus_bus"/>
    <trip id="bus157" depart="180.10" from="911116547" to="-445143939#1" departLane="best" type="bus_bus"/>
    <trip id="bus158" depart="181.25" from="-1449304890#19" to="1222882872#0" departLane="best" type="bus_bus"/>
    <trip id="bus159" depart="182.40" from="257692765#5" to="-690355194#7" departLane="best" type="bus_bus"/>
    <trip id="bus160" depart="183.54" from="208472461#4" to="1409740308#1" departLane="best" type="bus_bus"/>
    <trip id="bus161" depart="184.69" from="-912363096#5" to="189199967#2" departLane="best" type="bus_bus"/>
    <trip id="bus162" depart="185.84" from="-341869005" to="255775042#1" departLane="best" type="bus_bus" departSpeed="max"/>
    <trip id="bus163" depart="186.98" from="-1085142670#0" to="692910574" departLane="best" type="bus_bus"/>
    <trip id="bus164" depart="188.13" from="1414763095#3" to="258025932#1" departLane="best" type="bus_bus"/>
    <trip id="bus165" depart="189.28" from="26642644#1" to="23989764#2" departLane="best" type="bus_bus"/>
    <trip id="bus166" depart="190.43" from="-88496051#7" to="-1387053644#1" departLane="best" type="bus_bus"/>
    <trip id="bus167" depart="191.57" from="234259110" to="-692911404" departLane="best" type="bus_bus" departSpeed="max"/>
    <trip id="bus168" depart="192.72" from="-544489408#2" to="50878504#8" departLane="best" type="bus_bus" departSpeed="max"/>
    <trip id="bus169" depart="193.87" from="246762956#3" to="-611632070#1" departLane="best" type="bus_bus"/>
    <trip id="bus170" depart="195.01" from="-53279867#3" to="1188022941#2" departLane="best" type="bus_bus"/>
    <trip id="bus171" depart="196.16" from="1044663634" to="-605093942#1" departLane="best" type="bus_bus"/>
    <trip id="bus172" depart="197.31" from="-208136405#3" to="1222741583#12" departLane="best" type="bus_bus"/>
    <trip id="bus173" depart="198.46" from="702593086#0" to="24024777#14" departLane="best" type="bus_bus"/>
    <trip id="bus174" depart="199.60" from="-51822949#1" to="1431718356#2" departLane="best" type="bus_bus"/>
    <trip id="bus175" depart="200.75" from="-103840645#1" to="-53278703#11" departLane="best" type="bus_bus"/>
    <trip id="bus176" depart="201.90" from="1188022941#2" to="202506787#0" departLane="best" type="bus_bus"/>
    <trip id="bus177" depart="203.04" from="228767507#1" to="1320158847#2" departLane="best" type="bus_bus"/>
    <trip id="bus178" depart="204.19" from="1222741583#2" to="-26642650#7" departLane="best" type="bus_bus"/>
    <trip id="bus179" depart="205.34" from="1300897071#7" to="691145129#16" departLane="best" type="bus_bus"/>
    <trip id="bus180" depart="206.49" from="37370130#3" to="-24024772#7" departLane="best" type="bus_bus"/>
    <trip id="bus181" depart="207.63" from="208907445#8" to="-702593086#1" departLane="best" type="bus_bus"/>
    <trip id="bus182" depart="208.78" from="40755936#11" to="288039682#10" departLane="best" type="bus_bus"/>
    <trip id="bus183" depart="209.93" from="23649211#2" to="-289514709#1" departLane="best" type="bus_bus"/>
    <trip id="bus184" depart="211.07" from="-247610446#2" to="-1222741598#0" departLane="best" type="bus_bus"/>
    <trip id="bus185" depart="212.22" from="-31452010#2" to="1334817306#1" departLane="best" type="bus_bus"/>
    <trip id="bus186" depart="213.37" from="496426080#4" to="-1396148980#1" departLane="best" type="bus_bus"/>
    <trip id="bus187" depart="214.52" from="1155278554#1" to="22576050#9" departLane="best" type="bus_bus"/>
    <trip id="bus188" depart="215.66" from="-24042680#2" to="24041344#6" departLane="best" type="bus_bus"/>
    <trip id="bus189" depart="216.81" from="1334817307#2" to="-339883507#0" departLane="best" type="bus_bus"/>
    <trip id="bus190" depart="217.96" from="228943295#2" to="-1146968968" departLane="best" type="bus_bus"/>
    <trip id="bus191" depart="219.10" from="26902000#10" to="31518659" departLane="best" type="bus_bus"/>
    <trip id="bus192" depart="220.25" from="-1447625125" to="1222741587#1" departLane="best" type="bus_bus"/>
    <trip id="bus193" depart="221.40" from="-24024777#0" to="911113150#0" departLane="best" type="bus_bus"/>
    <trip id="bus194" depart="222.55" from="1388681517#3" to="-1320158851#2" departLane="best" type="bus_bus"/>
    <trip id="bus195" depart="223.69" from="-31541469#8" to="510754407#1" departLane="best" type="bus_bus"/>
    <trip id="bus196" depart="224.84" from="1232988763#3" to="38566695#2" departLane="best" type="bus_bus"/>
    <trip id="bus197" depart="225.99" from="235260970#2" to="920731516#3" departLane="best" type="bus_bus"/>
    <trip id="bus198" depart="227.13" from="690187864#3" to="208520936#1" departLane="best" type="bus_bus"/>
    <trip id="bus199" depart="228.28" from="246762956#1" to="1408203413#9" departLane="best" type="bus_bus"/>
    <trip id="bus200" depart="229.43" from="458343287#1" to="1431718356#1" departLane="best" type="bus_bus"/>
    <trip id="bus201" depart="230.58" from="1300898059#4" to="-401358083#8" departLane="best" type="bus_bus"/>
    <trip id="bus202" depart="231.72" from="-31541469#0" to="228767496#2" departLane="best" type="bus_bus"/>
    <trip id="bus203" depart="232.87" from="287993370#2" to="1414763098#1" departLane="best" type="bus_bus"/>
    <trip id="bus204" depart="234.02" from="208518325#14" to="-490727027#1" departLane="best" type="bus_bus"/>
    <trip id="bus205" depart="235.16" from="-1409697574#1" to="-53275456#5" departLane="best" type="bus_bus"/>
    <trip id="bus206" depart="236.31" from="-394695278#1" to="-691145130#1" departLane="best" type="bus_bus"/>
    <trip id="bus207" depart="237.46" from="1414763097#6" to="-208907445#1" departLane="best" type="bus_bus"/>
    <trip id="bus208" depart="238.61" from="-289514709#1" to="24041344#1" departLane="best" type="bus_bus"/>
    <trip id="bus209" depart="239.75" from="24041003#12" to="-1347340118" departLane="best" type="bus_bus"/>
    <trip id="bus210" depart="240.90" from="1103849646#1" to="1427251637#1" departLane="best" type="bus_bus"/>
    <trip id="bus211" depart="242.05" from="1155426003#1" to="-26642644#19" departLane="best" type="bus_bus"/>
    <trip id="bus212" depart="243.19" from="154454126#5" to="24041344#16" departLane="best" type="bus_bus"/>
    <trip id="bus213" depart="244.34" from="525676667#0" to="314480719#10" departLane="best" type="bus_bus"/>
    <trip id="bus214" depart="245.49" from="-911225815#1" to="-1155278554#1" departLane="best" type="bus_bus"/>
    <trip id="bus215" depart="246.64" from="-692911407#0" to="292510789#1" departLane="best" type="bus_bus"/>
    <trip id="bus216" depart="247.78" from="510754407#1" to="88497549#3" departLane="best" type="bus_bus"/>
    <trip id="bus217" depart="248.93" from="1165287688#1" to="27109231#3" departLane="best" type="bus_bus"/>
    <trip id="bus218" depart="250.08" from="1420130624#0" to="208514990#1" departLane="best" type="bus_bus"/>
    <trip id="bus219" depart="251.22" from="-27083101#7" to="-27108754#5" departLane="best" type="bus_bus"/>
    <trip id="bus220" depart="252.37" from="1208249028" to="-1222882869#1" departLane="best" type="bus_bus"/>
    <trip id="bus221" depart="253.52" from="-690355199#0" to="24024778#2" departLane="best" type="bus_bus"/>
    <trip id="bus222" depart="254.67" from="1085142671#1" to="-23989765#4" departLane="best" type="bus_bus"/>
    <trip id="bus223" depart="255.81" from="124841590#0" to="-208514985#1" departLane="best" type="bus_bus"/>
    <trip id="bus224" depart="256.96" from="208514995#1" to="-1222882864" departLane="best" type="bus_bus"/>
    <trip id="bus225" depart="258.11" from="-925188809#0" to="154454126#1" departLane="best" type="bus_bus"/>
    <trip id="bus226" depart="259.25" from="-1222882863#3" to="232389026#2" departLane="best" type="bus_bus"/>
    <trip id="bus227" depart="260.40" from="-208514986#4" to="1312808649#0" departLane="best" type="bus_bus"/>
    <trip id="bus228" depart="261.55" from="-1320158819#1" to="1044663634" departLane="best" type="bus_bus"/>
    <trip id="bus229" depart="262.70" from="-26642644#20" to="-691218156#4" departLane="best" type="bus_bus"/>
    <trip id="bus230" depart="263.84" from="26902000#16" to="467058779" departLane="best" type="bus_bus"/>
    <trip id="bus231" depart="264.99" from="-337560634#1" to="-1412113036#5" departLane="best" type="bus_bus"/>
    <trip id="bus232" depart="266.14" from="-1222741583#27" to="1427251602#0" departLane="best" type="bus_bus"/>
    <trip id="bus233" depart="267.28" from="98572426#3" to="-911110558" departLane="best" type="bus_bus"/>
    <trip id="bus234" depart="268.43" from="228464626#0" to="343641304#1" departLane="best" type="bus_bus"/>
    <trip id="bus235" depart="269.58" from="88496051#2" to="-257724952#1" departLane="best" type="bus_bus"/>
    <trip id="bus236" depart="270.73" from="-1222741583#6" to="-228943295#5" departLane="best" type="bus_bus"/>
    <trip id="bus237" depart="271.87" from="-208136396#2" to="23979404#7" departLane="best" type="bus_bus"/>
    <trip id="bus238" depart="273.02" from="1427251650#0" to="-27108752#3" departLane="best" type="bus_bus"/>
    <trip id="bus239" depart="274.17" from="24039803#5" to="314480719#4" departLane="best" type="bus_bus"/>
    <trip id="bus240" depart="275.31" from="-23649211#9" to="208515000#2" departLane="best" type="bus_bus"/>
    <trip id="bus241" depart="276.46" from="26642648#6" to="-183604223#0" departLane="best" type="bus_bus"/>
    <trip id="bus242" depart="277.61" from="40755936#5" to="911221184#0" departLane="best" type="bus_bus"/>
    <trip id="bus243" depart="278.76" from="-1449304890#16" to="-1222882863#1" departLane="best" type="bus_bus"/>
    <trip id="bus244" depart="279.90" from="911110044#2" to="1165287688#1" departLane="best" type="bus_bus"/>
    <trip id="bus245" depart="281.05" from="24024772#1" to="22576030#4" departLane="best" type="bus_bus"/>
    <trip id="bus246" depart="282.20" from="-1436650661#0" to="31541469#8" departLane="best" type="bus_bus"/>
    <trip id="bus247" depart="283.34" from="496426098#1" to="208514985#8" departLane="best" type="bus_bus"/>
    <trip id="bus248" depart="284.49" from="-186752465#7" to="920675375#5" departLane="best" type="bus_bus"/>
    <trip id="bus249" depart="285.64" from="31510683#0" to="-88497549#4" departLane="best" type="bus_bus" departSpeed="max"/>
    <trip id="bus250" depart="286.79" from="1187506592#0" to="-925185053" departLane="best" type="bus_bus"/>
    <trip id="bus251" depart="287.93" from="1361117795#5" to="-880146507#0" departLane="best" type="bus_bus"/>
    <trip id="bus252" depart="289.08" from="496426080#3" to="445143940#3" departLane="best" type="bus_bus"/>
    <trip id="bus253" depart="290.23" from="-1447089500" to="911115753#0" departLane="best" type="bus_bus"/>
    <trip id="bus254" depart="291.37" from="216250083#1" to="466850669#1" departLane="best" type="bus_bus"/>
    <trip id="bus255" depart="292.52" from="24041003#16" to="1224005429#1" departLane="best" type="bus_bus"/>
    <trip id="bus256" depart="293.67" from="257724951#2" to="911222968#2" departLane="best" type="bus_bus"/>
    <trip id="bus257" depart="294.82" from="-38566870#0" to="40755919#1" departLane="best" type="bus_bus"/>
    <trip id="bus258" depart="295.96" from="1414763095#1" to="1350005409#11" departLane="best" type="bus_bus"/>
    <trip id="bus259" depart="297.11" from="1208249027#7" to="26642650#4" departLane="best" type="bus_bus"/>
    <trip id="bus260" depart="298.26" from="-38566695#0" to="525676667#0" departLane="best" type="bus_bus"/>
    <trip id="bus261" depart="299.40" from="460387370" to="-1414763099#7" departLane="best" type="bus_bus"/>