<?xml version="1.0" encoding="UTF-8"?>

<!-- generated on 2025-11-19 05:32:52.829996 by osmWebWizard.py v1_24_0+0000-b72eb3fabc8
<configuration>
    <net-file value="/home/yarl/Desktop/sumo/tools/2025-11-19-05-32-17/osm.net.xml.gz"/>
    <output-trip-file value="/home/yarl/Desktop/sumo/tools/2025-11-19-05-32-17/osm.motorcycle.trips.xml"/>
    <route-file value="/home/yarl/Desktop/sumo/tools/2025-11-19-05-32-17/osm.motorcycle.rou.xml"/>
    <prefix value="motorcycle"/>
    <trip-attributes value="departLane=&quot;best&quot;"/>
    <fringe-start-attributes value="departSpeed=&quot;max&quot;"/>
    <vehicle-class value="motorcycle"/>
    <fringe-factor value="2"/>
    <edge-permission value="motorcycle"/>
    <via-edge-types value="highway.motorway,highway.motorway_link,highway.trunk_link,highway.primary_link,highway.secondary_link,highway.tertiary_link"/>
    <seed value="43"/>
    <max-distance value="1200.0"/>
    <remove-loops value="True"/>
    <insertion-density value="4.0"/>
</configuration>
-->

<routes xmlns:xsi="http://www.w3.org/2001/XMLSchema-instance" xsi:noNamespaceSchemaLocation="http://sumo.dlr.de/xsd/routes_file.xsd">
    <vType id="motorcycle_motorcycle" vClass="motorcycle"/>
    <trip id="motorcycle0" depart="0.00" from="-125617974" to="24041010#2" departLane="best" type="motorcycle_motorcycle"/>
    <trip id="motorcycle1" depart="2.31" from="23979402#2" to="385200732#0" departLane="best" type="motorcycle_motorcycle"/>
    <trip id="motorcycle2" depart="4.61" from="-1222741583#29" to="1222882871#2" departLane="best" type="motorcycle_motorcycle"/>
    <trip id="motorcycle3" depart="6.92" from="1424834371#0" to="288039682#0" departLane="best" type="motorcycle_motorcycle"/>
    <trip id="motorcycle4" depart="9.22" from="-925185053" to="-1320158852#3" departLane="best" type="motorcycle_motorcycle"/>
    <trip id="motorcycle5" depart="11.53" from="23979404#8" to="-1427251646#1" departLane="best" type="motorcycle_motorcycle"/>
    <trip id="motorcycle6" depart="13.83" from="911229691#1" to="1433947190#3" departLane="best" type="motorcycle_motorcycle"/>
    <trip id="motorcycle7" depart="16.14" from="-175953575#2" to="1386573578#1" departLane="best" type="motorcycle_motorcycle"/>
    <trip id="motorcycle8" depart="18.44" from="31511815#1" to="911108198#1" departLane="best" type="motorcycle_motorcycle"/>
    <trip id="motorcycle9" depart="20.75" from="-1414763098#5" to="-208514985#10" departLane="best" type="motorcycle_motorcycle"/>
    <trip id="motorcycle10" depart="23.06" from="-24041344#11" to="-24040748#6" departLane="best" type="motorcycle_motorcycle"/>
    <trip id="motorcycle11" depart="25.36" from="-288039682#8" to="1312808648#3" departLane="best" type="motorcycle_motorcycle"/>
    <trip id="motorcycle12" depart="27.67" from="1424832066#5" to="208518325#18" departLane="best" type="motorcycle_motorcycle"/>
    <trip id="motorcycle13" depart="29.97" from="1396148980#2" to="691145138#3" departLane="best" type="motorcycle_motorcycle"/>
    <trip id="motorcycle14" depart="32.28" from="1222163960#2" to="-1222163960#2" departLane="best" type="motorcycle_motorcycle"/>
    <trip id="motorcycle15" depart="34.58" from="1409740304#3" to="186752465#0" departLane="best" type="motorcycle_motorcycle"/>
    <trip id="motorcycle16" depart="36.89" from="-27083100#4" to="693651833#13" departLane="best" type="motorcycle_motorcycle"/>
    <trip id="motorcycle17" depart="39.20" from="1304966308#1" to="-605261126#23" departLane="best" type="motorcycle_motorcycle"/>
    <trip id="motorcycle18" depart="41.50" from="-24041003#11" to="690187862#5" departLane="best" type="motorcycle_motorcycle"/>
    <trip id="motorcycle19" depart="43.81" from="349962357#3" to="-27083101#1" departLane="best" type="motorcycle_motorcycle"/>
    <trip id="motorcycle20" depart="46.11" from="-24041344#13" to="-401358083#12" departLane="best" type="motorcycle_motorcycle"/>
    <trip id="motorcycle21" depart="48.42" from="1409697580" to="-208514995#0" departLane="best" type="motorcycle_motorcycle"/>
    <trip id="motorcycle22" depart="50.72" from="-24041344#1" to="22576030#12" departLane="best" type="motorcycle_motorcycle"/>
    <trip id="motorcycle23" depart="53.03" from="1187506598#0" to="-1342321804#4" departLane="best" type="motorcycle_motorcycle"/>
    <trip id="motorcycle24" depart="55.33" from="23650459#3" to="40755919#2" departLane="best" type="motorcycle_motorcycle"/>
    <trip id="motorcycle25" depart="57.64" from="171898837#0" to="313445161#0" departLane="best" type="motorcycle_motorcycle"/>
    <trip id="motorcycle26" depart="59.95" from="-171895862" to="124482978#7" departLane="best" type="motorcycle_motorcycle"/>
    <trip id="motorcycle27" depart="62.25" from="-175953577#3" to="1222882871#3" departLane="best" type="motorcycle_motorcycle"/>
    <trip id="motorcycle28" depart="64.56" from="23989757#2" to="-26540252#1" departLane="best" type="motorcycle_motorcycle"/>
    <trip id="motorcycle29" depart="66.86" from="-691145133#3" to="171895222#1" departLane="best" type="motorcycle_motorcycle"/>
    <trip id="motorcycle30" depart="69.17" from="-525676665#1" to="385200736#1" departLane="best" type="motorcycle_motorcycle"/>
    <trip id="motorcycle31" depart="71.47" from="208907445#0" to="-691145131#10" departLane="best" type="motorcycle_motorcycle"/>
    <trip id="motorcycle32" depart="73.78" from="-1320158831#2" to="-24024772#0" departLane="best" type="motorcycle_motorcycle"/>
    <trip id="motorcycle33" depart="76.08" from="-928099276#14" to="1427251637#1" departLane="best" type="motorcycle_motorcycle"/>
    <trip id="motorcycle34" depart="78.39" from="24041003#1" to="-208520936#3" departLane="best" type="motorcycle_motorcycle"/>
    <trip id="motorcycle35" depart="80.70" from="1124080588#2" to="222570191#3" departLane="best" type="motorcycle_motorcycle"/>
    <trip id="motorcycle36" depart="83.00" from="691143808#6" to="691143808#6" departLane="best" type="motorcycle_motorcycle"/>
    <trip id="motorcycle37" depart="85.31" from="460408961#1" to="124841587#1" departLane="best" type="motorcycle_motorcycle"/>
    <trip id="motorcycle38" depart="87.61" from="-31541469#6" to="1222882863#4" departLane="best" type="motorcycle_motorcycle"/>
    <trip id="motorcycle39" depart="89.92" from="-690187867#2" to="1370006053#2" departLane="best" type="motorcycle_motorcycle"/>
    <trip id="motorcycle40" depart="92.22" from="385200734#9" to="40755919#1" departLane="best" type="motorcycle_motorcycle"/>
    <trip id="motorcycle41" depart="94.53" from="-691145130#2" to="691145130#2" departLane="best" type="motorcycle_motorcycle"/>
    <trip id="motorcycle42" depart="96.84" from="-920731517#1" to="785750009#9" departLane="best" type="motorcycle_motorcycle"/>
    <trip id="motorcycle43" depart="99.14" from="-1422516688" to="-911115421#3" departLane="best" type="motorcycle_motorcycle"/>
    <trip id="motorcycle44" depart="101.45" from="-208907445#3" to="691145129#0" departLane="best" type="motorcycle_motorcycle"/>
    <trip id="motorcycle45" depart="103.75" from="-928099276#9" to="1431718357" departLane="best" type="motorcycle_motorcycle"/>
    <trip id="motorcycle46" depart="106.06" from="1222882872#1" to="208514985#4" departLane="best" type="motorcycle_motorcycle"/>
    <trip id="motorcycle47" depart="108.36" from="-1222163960#0" to="154454120#3" departLane="best" type="motorcycle_motorcycle"/>
    <trip id="motorcycle48" depart="110.67" from="691215051#3" to="24025993#3" departLane="best" type="motorcycle_motorcycle"/>
    <trip id="motorcycle49" depart="112.97" from="-27083101#7" to="1312808647#0" departLane="best" type="motorcycle_motorcycle"/>
    <trip id="motorcycle50" depart="115.28" from="-1427251602#0" to="-349962357#2" departLane="best" type="motorcycle_motorcycle"/>
    <trip id="motorcycle51" depart="117.59" from="-38566870#3" to="-1423481107#0" departLane="best" type="motorcycle_motorcycle"/>
    <trip id="motorcycle52" depart="119.89" from="-652090756#2" to="23979404#34" departLane="best" type="motorcycle_motorcycle"/>
    <trip id="motorcycle53" depart="122.20" from="-26642644#21" to="-1222882871#1" departLane="best" type="motorcycle_motorcycle"/>
    <trip id="motorcycle54" depart="124.50" from="208514980#2" to="912358838#5" departLane="best" type="motorcycle_motorcycle"/>
    <trip id="motorcycle55" depart="126.81" from="1370006053#3" to="-1222741587#1" departLane="best" type="motorcycle_motorcycle"/>
    <trip id="motorcycle56" depart="129.11" from="-248218178#3" to="466839422#2" departLane="best" type="motorcycle_motorcycle"/>
    <trip id="motorcycle57" depart="131.42" from="1085142673#0" to="-24039803#3" departLane="best" type="motorcycle_motorcycle"/>
    <trip id="motorcycle58" depart="133.73" from="-1320158851#3" to="-1222741574#0" departLane="best" type="motorcycle_motorcycle"/>
    <trip id="motorcycle59" depart="136.03" from="53278703#6" to="-691145129#1" departLane="best" type="motorcycle_motorcycle"/>
    <trip id="motorcycle60" depart="138.34" from="208493047#4" to="257724840#1" departLane="best" type="motorcycle_motorcycle"/>
    <trip id="motorcycle61" depart="140.64" from="-781783320#11" to="1446864466#4" departLane="best" type="motorcycle_motorcycle" departSpeed="max"/>
    <trip id="motorcycle62" depart="142.95" from="1414763094#0" to="27108755" departLane="best" type="motorcycle_motorcycle"/>
    <trip id="motorcycle63" depart="145.25" from="693651830#1" to="48795301" departLane="best" type="motorcycle_motorcycle"/>
    <trip id="motorcycle64" depart="147.56" from="911113666" to="758842991" departLane="best" type="motorcycle_motorcycle"/>
    <trip id="motorcycle65" depart="149.86" from="1416465077#2" to="154454128#7" departLane="best" type="motorcycle_motorcycle"/>
    <trip id="motorcycle66" depart="152.17" from="-24041003#11" to="1414763094#0" departLane="best" type="motorcycle_motorcycle"/>
    <trip id="motorcycle67" depart="154.48" from="-691145129#3" to="-1420130624#0" departLane="best" type="motorcycle_motorcycle"/>
    <trip id="motorcycle68" depart="156.78" from="1424834371#1" to="690187862#6" departLane="best" type="motorcycle_motorcycle"/>
    <trip id="motorcycle69" depart="159.09" from="-693651830#1" to="40755919#3" departLane="best" type="motorcycle_motorcycle"/>
    <trip id="motorcycle70" depart="161.39" from="27085834#5" to="920732520#2" departLane="best" type="motorcycle_motorcycle"/>
    <trip id="motorcycle71" depart="163.70" from="1416465077#3" to="-691339338#3" departLane="best" type="motorcycle_motorcycle"/>
    <trip id="motorcycle72" depart="166.00" from="-242456045#2" to="-51214856" departLane="best" type="motorcycle_motorcycle"/>
    <trip id="motorcycle73" depart="168.31" from="490727026" to="208515000#0" departLane="best" type="motorcycle_motorcycle"/>
    <trip id="motorcycle74" depart="170.61" from="-655430041#1" to="1222882867" departLane="best" type="motorcycle_motorcycle"/>
    <trip id="motorcycle75" depart="172.92" from="26642644#2" to="1279020894#5" departLane="best" type="motorcycle_motorcycle"/>
    <trip id="motorcycle76" depart="175.23" from="-1222741583#25" to="26642644#2" departLane="best" type="motorcycle_motorcycle"/>
    <trip id="motorcycle77" depart="177.53" from="23477158#7" to="-925193172#5" departLane="best" type="motorcycle_motorcycle"/>
    <trip id="motorcycle78" depart="179.84" from="30992560#3" to="222570183#3" departLane="best" type="motorcycle_motorcycle"/>
    <trip id="motorcycle79" depart="182.14" from="-1156527827" to="-1387053644#2" departLane="best" type="motorcycle_motorcycle" departSpeed="max"/>
    <trip id="motorcycle80" depart="184.45" from="1414763099#6" to="693651829#2" departLane="best" type="motorcycle_motorcycle"/>
    <trip id="motorcycle81" depart="186.75" from="1312808647#8" to="23979404#13" departLane="best" type="motorcycle_motorcycle"/>
    <trip id="motorcycle82" depart="189.06" from="208493039#24" to="-1427251607#0" departLane="best" type="motorcycle_motorcycle"/>
    <trip id="motorcycle83" depart="191.37" from="-257724787#1" to="912359483#0" departLane="best" type="motorcycle_motorcycle"/>
    <trip id="motorcycle84" depart="193.67" from="50878504#0" to="23979402#8" departLane="best" type="motorcycle_motorcycle"/>
    <trip id="motorcycle85" depart="195.98" from="-1326103722" to="233432897#2" departLane="best" type="motorcycle_motorcycle"/>
    <trip id="motorcycle86" depart="198.28" from="-652090756#1" to="208515007#1" departLane="best" type="motorcycle_motorcycle"/>
    <trip id="motorcycle87" depart="200.59" from="-690187864#8" to="384959687#2" departLane="best" type="motorcycle_motorcycle"/>
    <trip id="motorcycle88" depart="202.89" from="-1449304890#10" to="40941250#9" departLane="best" type="motorcycle_motorcycle"/>
    <trip id="motorcycle89" depart="205.20" from="-1188022941#1" to="691145136#10" departLane="best" type="motorcycle_motorcycle"/>
    <trip id="motorcycle90" depart="207.50" from="22576030#1" to="-24011166#11" departLane="best" type="motorcycle_motorcycle"/>
    <trip id="motorcycle91" depart="209.81" from="-611632070#6" to="1146968967#4" departLane="best" type="motorcycle_motorcycle" departSpeed="max"/>
    <trip id="motorcycle92" depart="212.12" from="-339883507#0" to="-208136417#1" departLane="best" type="motorcycle_motorcycle"/>
    <trip id="motorcycle93" depart="214.42" from="1103848385#1" to="277028961#1" departLane="best" type="motorcycle_motorcycle"/>
    <trip id="motorcycle94" depart="216.73" from="-1414763099#4" to="605261126#10" departLane="best" type="motorcycle_motorcycle"/>
    <trip id="motorcycle95" depart="219.03" from="235260970#6" to="-690504734" departLane="best" type="motorcycle_motorcycle"/>
    <trip id="motorcycle96" depart="221.34" from="27108754#2" to="1449304890#25" departLane="best" type="motorcycle_motorcycle"/>
    <trip id="motorcycle97" depart="223.64" from="1292156358#0" to="154454126#11" departLane="best" type="motorcycle_motorcycle"/>
    <trip id="motorcycle98" depart="225.95" from="26902000#9" to="1409740308#0" departLane="best" type="motorcycle_motorcycle"/>
    <trip id="motorcycle99" depart="228.25" from="690192473#1" to="-24041344#12" departLane="best" type="motorcycle_motorcycle"/>
    <trip id="motorcycle100" depart="230.56" from="1370006053#2" to="186752465#1" departLane="best" type="motorcycle_motorcycle"/>
    <trip id="motorcycle101" depart="232.87" from="1414112451#0" to="236481182" departLane="best" type="motorcycle_motorcycle"/>
    <trip id="motorcycle102" depart="235.17" from="690192473#1" to="1423481107#4" departLane="best" type="motorcycle_motorcycle"/>
    <trip id="motorcycle103" depart="237.48" from="24024777#14" to="208514985#1" departLane="best" type="motorcycle_motorcycle"/>
    <trip id="motorcycle104" depart="239.78" from="23979404#28" to="-30992469#1" departLane="best" type="motorcycle_motorcycle"/>
    <trip id="motorcycle105" depart="242.09" from="1185785532#4" to="487759852#21" departLane="best" type="motorcycle_motorcycle"/>
    <trip id="motorcycle106" depart="244.39" from="208136405#2" to="1446517203#0" departLane="best" type="motorcycle_motorcycle"/>
    <trip id="motorcycle107" depart="246.70" from="-1222882869#0" to="-23979402#17" departLane="best" type="motorcycle_motorcycle"/>
    <trip id="motorcycle108" depart="249.01" from="24040748#0" to="103840645#1" departLane="best" type="motorcycle_motorcycle"/>
    <trip id="motorcycle109" depart="251.31" from="-26642644#19" to="1427251645#1" departLane="best" type="motorcycle_motorcycle"/>
    <trip id="motorcycle110" depart="253.62" from="920731516#3" to="1342321804#7" departLane="best" type="motorcycle_motorcycle"/>
    <trip id="motorcycle111" depart="255.92" from="525676666#1" to="702593086#4" departLane="best" type="motorcycle_motorcycle"/>
    <trip id="motorcycle112" depart="258.23" from="611632070#4" to="-50878504#0" departLane="best" type="motorcycle_motorcycle"/>
    <trip id="motorcycle113" depart="260.53" from="-27108752#2" to="605261126#21" departLane="best" type="motorcycle_motorcycle"/>
    <trip id="motorcycle114" depart="262.84" from="1124255387#2" to="693651826#3" departLane="best" type="motorcycle_motorcycle"/>
    <trip id="motorcycle115" depart="265.14" from="691145130#5" to="-785750009#9" departLane="best" type="motorcycle_motorcycle"/>
    <trip id="motorcycle116" depart="267.45" from="925193172#4" to="48795303#4" departLane="best" type="motorcycle_motorcycle"/>
    <trip id="motorcycle117" depart="269.76" from="1239813219#0" to="-26642644#7" departLane="best" type="motorcycle_motorcycle"/>
    <trip id="motorcycle118" depart="272.06" from="1424832064#17" to="928099279#1" departLane="best" type="motorcycle_motorcycle"/>
    <trip id="motorcycle119" depart="274.37" from="-23989765#3" to="1320158851#10" departLane="best" type="motorcycle_motorcycle"/>
    <trip id="motorcycle120" depart="276.67" from="1235109779#0" to="24039803#3" departLane="best" type="motorcycle_motorcycle"/>
    <trip id="motorcycle121" depart="278.98" from="-1334817306#2" to="-605261126#17" departLane="best" type="motorcycle_motorcycle"/>
    <trip id="motorcycle122" depart="281.28" from="255770427" to="702593086#4" departLane="best" type="motorcycle_motorcycle"/>
    <trip id="motorcycle123" depart="283.59" from="1388681517#6" to="385204710#3" departLane="best" type="motorcycle_motorcycle"/>
    <trip id="motorcycle124" depart="285.89" from="154454128#6" to="691143808#5" departLane="best" type="motorcycle_motorcycle"/>
    <trip id="motorcycle125" depart="288.20" from="691145138#6" to="1185785536#0" departLane="best" type="motorcycle_motorcycle"/>
    <trip id="motorcycle126" depart="290.51" from="691145137#20" to="-911117786#1" departLane="best" type="motorcycle_motorcycle"/>
    <trip id="motorcycle127" depart="292.81" from="-24040756#1" to="48795303#12" departLane="best" type="motorcycle_motorcycle"/>
    <trip id="motorcycle128" depart="295.12" from="24041003#12" to="24041003#1" departLane="best" type="motorcycle_motorcycle"/>
    <trip id="motorcycle129" depart="297.42" from="487759852#21" to="23979403#7" departLane="best" type="motorcycle_motorcycle"/>
    <trip id="motorcycle130" depart="299.73" from="-228943295#6" to="605093942#2" departLane="best" type="motorcycle_motorcycle"/>
    <trip id="motorcycle131" depart="302.03" from="920690085#3" to="1396148980#0" departLane="best" type="motorcycle_motorcycle"/>
    <trip id="motorcycle132" depart="304.34" from="-23979402#12" to="208493036#5" departLane="best" type="motorcycle_motorcycle"/>
    <trip id="motorcycle133" depart="306.65" from="887012116#2" to="-40941250#2" departLane="best" type="motorcycle_motorcycle"/>
    <trip id="motorcycle134" depart="308.95" from="24040599#0" to="248218178#1" departLane="best" type="motorcycle_motorcycle"/>
    <trip id="motorcycle135" depart="311.26" from="-208907442#0" to="691143809#6" departLane="best" type="motorcycle_motorcycle"/>
    <trip id="motorcycle136" depart="313.56" from="40755926#5" to="1347340113#1" departLane="best" type="motorcycle_motorcycle"/>
    <trip id="motorcycle137" depart="315.87" from="171898837#0" to="1422516706" departLane="best" type="motorcycle_motorcycle"/>
    <trip id="motorcycle138" depart="318.17" from="-23979402#12" to="693651833#4" departLane="best" type="motorcycle_motorcycle"/>
    <trip id="motorcycle139" depart="320.48" from="154454120#2" to="208136429#0" departLane="best" type="motorcycle_motorcycle"/>
    <trip id="motorcycle140" depart="322.78" from="23979404#2" to="-690355196#3" departLane="best" type="motorcycle_motorcycle"/>
    <trip id="motorcycle141" depart="325.09" from="1388681523#1" to="1427251617#3" departLane="best" type="motorcycle_motorcycle"/>
    <trip id="motorcycle142" depart="327.40" from="26642644#1" to="682835983#12" departLane="best" type="motorcycle_motorcycle"/>
    <trip id="motorcycle143" depart="329.70" from="1320158817#1" to="-1422516705" departLane="best" type="motorcycle_motorcycle"/>
    <trip id="motorcycle144" depart="332.01" from="-1334817309" to="23649211#7" departLane="best" type="motorcycle_motorcycle"/>
    <trip id="motorcycle145" depart="334.31" from="1449304890#15" to="887012116#1" departLane="best" type="motorcycle_motorcycle"/>
    <trip id="motorcycle146" depart="336.62" from="189199967#2" to="-1272645241" departLane="best" type="motorcycle_motorcycle"/>
    <trip id="motorcycle147" depart="338.92" from="-1123881600#0" to="691339338#6" departLane="best" type="motorcycle_motorcycle"/>
    <trip id="motorcycle148" depart="341.23" from="-544489408#1" to="-23535107#1" departLane="best" type="motorcycle_motorcycle"/>
    <trip id="motorcycle149" depart="343.54" from="1447089504" to="-691218156#7" departLane="best" type="motorcycle_motorcycle"/>
    <trip id="motorcycle150" depart="345.84" from="-925193172#2" to="-1222741589#1" departLane="best" type="motorcycle_motorcycle"/>
    <trip id="motorcycle151" depart="348.15" from="1449304890#8" to="208514985#1" departLane="best" type="motorcycle_motorcycle"/>
    <trip id="motorcycle152" depart="350.45" from="23649211#9" to="-88497026#0" departLane="best" type="motorcycle_motorcycle"/>
    <trip id="motorcycle153" depart="352.76" from="-1334817302#1" to="401358083#16" departLane="best" type="motorcycle_motorcycle"/>
    <trip id="motorcycle154" depart="355.06" from="1334817307#2" to="22576030#3" departLane="best" type="motorcycle_motorcycle"/>
    <trip id="motorcycle155" depart="357.37" from="691145135#2" to="1185198486#4" departLane="best" type="motorcycle_motorcycle"/>
    <trip id="motorcycle156" depart="359.67" from="1300898059#3" to="1424832064#3" departLane="best" type="motorcycle_motorcycle"/>
    <trip id="motorcycle157" depart="361.98" from="-611632070#1" to="1374191445#3" departLane="best" type="motorcycle_motorcycle"/>
    <trip id="motorcycle158" depart="364.29" from="-691145129#6" to="496426080#4" departLane="best" type="motorcycle_motorcycle"/>
    <trip id="motorcycle159" depart="366.59" from="27064537#0" to="693651833#15" departLane="best" type="motorcycle_motorcycle"/>
    <trip id="motorcycle160" depart="368.90" from="24039739#2" to="-314480719#2" departLane="best" type="motorcycle_motorcycle"/>
    <trip id="motorcycle161" depart="371.20" from="691145138#6" to="1276125093" departLane="best" type="motorcycle_motorcycle"/>
    <trip id="motorcycle162" depart="373.51" from="-1423481107#4" to="-30992559#2" departLane="best" type="motorcycle_motorcycle"/>
    <trip id="motorcycle163" depart="375.81" from="-925193172#9" to="-544059267#2" departLane="best" type="motorcycle_motorcycle"/>
    <trip id="motorcycle164" depart="378.12" from="87741571#4" to="24041003#17" departLane="best" type="motorcycle_motorcycle"/>
    <trip id="motorcycle165" depart="380.42" from="1409697575#0" to="-1409697574#1" departLane="best" type="motorcycle_motorcycle"/>
    <trip id="motorcycle166" depart="382.73" from="691218158#2" to="232389026#2" departLane="best" type="motorcycle_motorcycle"/>
    <trip id="motorcycle167" depart="385.04" from="394695278#4" to="-394695278#4" departLane="best" type="motorcycle_motorcycle"/>
    <trip id="motorcycle168" depart="387.34" from="24041003#13" to="1334817310#0" departLane="best" type="motorcycle_motorcycle"/>
    <trip id="motorcycle169" depart="389.65" from="40755919#4" to="-26642648#0" departLane="best" type="motorcycle_motorcycle"/>
    <trip id="motorcycle170" depart="391.95" from="-40941250#10" to="208493047#3" departLane="best" type="motorcycle_motorcycle"/>
    <trip id="motorcycle171" depart="394.26" from="693651833#7" to="40755936#3" departLane="best" type="motorcycle_motorcycle"/>
    <trip id="motorcycle172" depart="396.56" from="691145137#23" to="691143808#8" departLane="best" type="motorcycle_motorcycle"/>
    <trip id="motorcycle173" depart="398.87" from="245951650#4" to="-1427251650#0" departLane="best" type="motorcycle_motorcycle"/>
    <trip id="motorcycle174" depart="401.18" from="554048065#0" to="228767496#2" departLane="best" type="motorcycle_motorcycle" departSpeed="max"/>
    <trip id="motorcycle175" depart="403.48" from="-544059267#1" to="-349962357#1" departLane="best" type="motorcycle_motorcycle"/>
    <trip id="motorcycle176" depart="405.79" from="1222882871#1" to="88498029#0" departLane="best" type="motorcycle_motorcycle"/>
    <trip id="motorcycle177" depart="408.09" from="22576030#5" to="257692778#2" departLane="best" type="motorcycle_motorcycle"/>
    <trip id="motorcycle178" depart="410.40" from="692910546#3" to="208518325#4" departLane="best" type="motorcycle_motorcycle"/>
    <trip id="motorcycle179" depart="412.70" from="23979402#7" to="23979404#15" departLane="best" type="motorcycle_motorcycle"/>
    <trip id="motorcycle180" depart="415.01" from="1341390075#1" to="30992562#3" departLane="best" type="motorcycle_motorcycle"/>
    <trip id="motorcycle181" depart="417.31" from="1185785531#1" to="31511815#1" departLane="best" type="motorcycle_motorcycle"/>
    <trip id="motorcycle182" depart="419.62" from="-1334817306#0" to="1370006053#4" departLane="best" type="motorcycle_motorcycle"/>
    <trip id="motorcycle183" depart="421.93" from="24024777#2" to="-690187867#0" departLane="best" type="motorcycle_motorcycle"/>
    <trip id="motorcycle184" depart="424.23" from="24024777#11" to="-928099276#8" departLane="best" type="motorcycle_motorcycle"/>
    <trip id="motorcycle185" depart="426.54" from="1103848386#1" to="1222741583#18" departLane="best" type="motorcycle_motorcycle"/>
    <trip id="motorcycle186" depart="428.84" from="1155426004#6" to="-1187506598#1" departLane="best" type="motorcycle_motorcycle"/>
    <trip id="motorcycle187" depart="431.15" from="-1341390068#0" to="1437043833" departLane="best" type="motorcycle_motorcycle"/>
    <trip id="motorcycle188" depart="433.45" from="-544489408#2" to="23979402#14" departLane="best" type="motorcycle_motorcycle" departSpeed="max"/>
    <trip id="motorcycle189" depart="435.76" from="-911115421#3" to="-920732520#0" departLane="best" type="motorcycle_motorcycle"/>
    <trip id="motorcycle190" depart="438.06" from="-24041003#16" to="88497026#3" departLane="best" type="motorcycle_motorcycle"/>
    <trip id="motorcycle191" depart="440.37" from="1185785532#3" to="912363096#3" departLane="best" type="motorcycle_motorcycle"/>
    <trip id="motorcycle192" depart="442.68" from="-690187849#2" to="1409740310#0" departLane="best" type="motorcycle_motorcycle"/>
    <trip id="motorcycle193" depart="444.98" from="-1321446580#1" to="24039803#9" departLane="best" type="motorcycle_motorcycle"/>
    <trip id="motorcycle194" depart="447.29" from="-380361483#1" to="-30992559#2" departLane="best" type="motorcycle_motorcycle"/>
    <trip id="motorcycle195" depart="449.59" from="206827379#0" to="693651833#3" departLane="best" type="motorcycle_motorcycle"/>
    <trip id="motorcycle196" depart="451.90" from="-911229690#3" to="-258025940#0" departLane="best" type="motorcycle_motorcycle"/>
    <trip id="motorcycle197" depart="454.20" from="1412113036#6" to="911228758#1" departLane="best" type="motorcycle_motorcycle"/>
    <trip id="motorcycle198" depart="456.51" from="-1414763099#5" to="245951650#0" departLane="best" type="motorcycle_motorcycle"/>
    <trip id="motorcycle199" depart="458.82" from="51822949#1" to="-690187850#2" departLane="best" type="motorcycle_motorcycle"/>
    <trip id="motorcycle200" depart="461.12" from="1414763098#6" to="-30992562#4" departLane="best" type="motorcycle_motorcycle"/>
    <trip id="motorcycle201" depart="463.43" from="-1414763099#2" to="-23535107#15" departLane="best" type="motorcycle_motorcycle"/>
    <trip id="motorcycle202" depart="465.73" from="88496051#2" to="-1409740309#2" departLane="best" type="motorcycle_motorcycle"/>
    <trip id="motorcycle203" depart="468.04" from="-912363097#2" to="-912368454#2" departLane="best" type="motorcycle_motorcycle"/>
    <trip id="motorcycle204" depart="470.34" from="1334817302#0" to="-1222741583#11" departLane="best" type="motorcycle_motorcycle"/>
    <trip id="motorcycle205" depart="472.65" from="53278703#5" to="-257724387#3" departLane="best" type="motorcycle_motorcycle"/>
    <trip id="motorcycle206" depart="474.95" from="-208514988#2" to="208518325#10" departLane="best" type="motorcycle_motorcycle"/>
    <trip id="motorcycle207" depart="477.26" from="554048065#2" to="189199969#4" departLane="best" type="motorcycle_motorcycle"/>
    <trip id="motorcycle208" depart="479.57" from="313445161#1" to="232472316#4" departLane="best" type="motorcycle_motorcycle"/>
    <trip id="motorcycle209" depart="481.87" from="1222741583#23" to="-692910546#7" departLane="best" type="motorcycle_motorcycle"/>
    <trip id="motorcycle210" depart="484.18" from="-1409697569" to="-24039803#7" departLane="best" type="motorcycle_motorcycle"/>
    <trip id="motorcycle211" depart="486.48" from="-911115421#3" to="-911229690#3" departLane="best" type="motorcycle_motorcycle"/>
    <trip id="motorcycle212" depart="488.79" from="-466850669#0" to="208493036#5" departLane="best" type="motorcycle_motorcycle"/>
    <trip id="motorcycle213" depart="491.09" from="-781783320#3" to="208907445#3" departLane="best" type="motorcycle_motorcycle"/>
    <trip id="motorcycle214" depart="493.40" from="-31541469#6" to="1222882863#3" departLane="best" type="motorcycle_motorcycle"/>
    <trip id="motorcycle215" depart="495.70" from="189199968#3" to="-31511815#1" departLane="best" type="motorcycle_motorcycle"/>
    <trip id="motorcycle216" depart="498.01" from="1203301960#11" to="27108752#2" departLane="best" type="motorcycle_motorcycle"/>
    <trip id="motorcycle217" depart="500.32" from="189199968#1" to="234259112" departLane="best" type="motorcycle_motorcycle"/>
    <trip id="motorcycle218" depart="502.62" from="-40755926#5" to="-40941250#6" departLane="best" type="motorcycle_motorcycle"/>
    <trip id="motorcycle219" depart="504.93" from="154454126#5" to="1239813219#0" departLane="best" type="motorcycle_motorcycle"/>