<?xml version="1.0" encoding="UTF-8"?>

<!-- generated on 2025-11-19 05:33:33.624968 by osmWebWizard.py v1_24_0+0000-b72eb3fabc8
<configuration>
    <net-file value="/home/yarl/Desktop/sumo/tools/2025-11-19-05-32-17/osm.net.xml.gz"/>
    <output-trip-file value="/home/yarl/Desktop/sumo/tools/2025-11-19-05-32-17/osm.truck.trips.xml"/>
    <route-file value="/home/yarl/Desktop/sumo/tools/2025-11-19-05-32-17/osm.truck.rou.xml"/>
    <prefix value="truck"/>
    <trip-attributes value="departLane=&quot;best&quot;"/>
    <fringe-start-attributes value="departSpeed=&quot;max&quot;"/>
    <vehicle-class value="truck"/>
    <fringe-factor value="5"/>
    <edge-permission value="truck"/>
    <via-edge-types value="highway.motorway,highway.motorway_link,highway.trunk_link,highway.primary_link,highway.secondary_link,highway.tertiary_link"/>
    <seed value="46"/>
    <min-distance value="600.0"/>
    <min-distance.fringe value="10.0"/>
    <remove-loops value="True"/>
    <insertion-density value="3.0"/>
</configuration>
-->

<routes xmlns:xsi="http://www.w3.org/2001/XMLSchema-instance" xsi:noNamespaceSchemaLocation="http://sumo.dlr.de/xsd/routes_file.xsd">
    <vType id="truck_truck" vClass="truck"/>
    <trip id="truck0" depart="0.00" from="690187850#6" to="1185785539#0" departLane="best" type="truck_truck"/>
    <trip id="truck1" depart="3.08" from="171900795" to="880146507#0" departLane="best" type="truck_truck"/>
    <trip id="truck2" depart="6.15" from="-1224005429#0" to="-1391190025#0" departLane="best" type="truck_truck"/>
    <trip id="truck3" depart="9.23" from="-655430041#0" to="466839422#0" departLane="best" type="truck_truck"/>
    <trip id="truck4" depart="12.31" from="48795303#1" to="-208907445#4" departLane="best" type="truck_truck"/>
    <trip id="truck5" depart="15.39" from="691218153#0" to="1423481109#1" departLane="best" type="truck_truck"/>
    <trip id="truck6" depart="18.46" from="911225815#2" to="693656421" departLane="best" type="truck_truck"/>
    <trip id="truck7" depart="21.54" from="-1427251617#6" to="912363096#3" departLane="best" type="truck_truck"/>
    <trip id="truck8" depart="24.62" from="1320158851#2" to="-23649211#0" departLane="best" type="truck_truck"/>
    <trip id="truck9" depart="27.69" from="1279020894#8" to="-1409740304#1" departLane="best" type="truck_truck"/>
    <trip id="truck10" depart="30.77" from="26902000#12" to="1431718357" departLane="best" type="truck_truck"/>
    <trip id="truck11" depart="33.85" from="-1450165106#5" to="-30992562#2" departLane="best" type="truck_truck"/>
    <trip id="truck12" depart="36.92" from="-40941250#5" to="-1450165106#7" departLane="best" type="truck_truck"/>
    <trip id="truck13" depart="40.00" from="-747775239" to="-1391190025#1" departLane="best" type="truck_truck"/>
    <trip id="truck14" depart="43.08" from="-691145129#4" to="630928102#1" departLane="best" type="truck_truck"/>
    <trip id="truck15" depart="46.16" from="-24041003#17" to="-682835982#0" departLane="best" type="truck_truck"/>
    <trip id="truck16" depart="49.23" from="30992562#1" to="-26642644#3" departLane="best" type="truck_truck"/>
    <trip id="truck17" depart="52.31" from="-183604071#1" to="-385204712#5" departLane="best" type="truck_truck"/>
    <trip id="truck18" depart="55.39" from="23979403#7" to="-1361117795#0" departLane="best" type="truck_truck"/>
    <trip id="truck19" depart="58.46" from="-466850669#0" to="-202361495#2" departLane="best" type="truck_truck"/>
    <trip id="truck20" depart="61.54" from="1427251650#0" to="-925188163" departLane="best" type="truck_truck"/>
    <trip id="truck21" depart="64.62" from="26902000#23" to="183604223#0" departLane="best" type="truck_truck"/>
    <trip id="truck22" depart="67.69" from="171895222#1" to="-24025993#6" departLane="best" type="truck_truck"/>
    <trip id="truck23" depart="70.77" from="1420130674" to="-1365663500#0" departLane="best" type="truck_truck"/>
    <trip id="truck24" depart="73.85" from="-1446864466#6" to="536676592#0" departLane="best" type="truck_truck"/>
    <trip id="truck25" depart="76.93" from="245951650#4" to="-24041356#2" departLane="best" type="truck_truck"/>
    <trip id="truck26" depart="80.00" from="-527979087" to="202361495#2" departLane="best" type="truck_truck" departSpeed="max"/>
    <trip id="truck27" depart="83.08" from="702593086#1" to="-1222741596" departLane="best" type="truck_truck"/>
    <trip id="truck28" depart="86.16" from="228767495#1" to="-124482977#11" departLane="best" type="truck_truck"/>
    <trip id="truck29" depart="89.23" from="313445159" to="-925186272#1" departLane="best" type="truck_truck"/>
    <trip id="truck30" depart="92.31" from="-1414763099#5" to="1180743610#1" departLane="best" type="truck_truck"/>
    <trip id="truck31" depart="95.39" from="228767496#1" to="-208907445#6" departLane="best" type="truck_truck"/>
    <trip id="truck32" depart="98.46" from="-912359483#0" to="346001019#2" departLane="best" type="truck_truck"/>
    <trip id="truck33" depart="101.54" from="40941250#5" to="26642650#12" departLane="best" type="truck_truck"/>
    <trip id="truck34" depart="104.62" from="1305575502#1" to="255770433#0" departLane="best" type="truck_truck"/>
    <trip id="truck35" depart="107.70" from="-22576030#3" to="1131912086#2" departLane="best" type="truck_truck"/>
    <trip id="truck36" depart="110.77" from="-554048065#2" to="-208515007#0" departLane="best" type="truck_truck"/>
    <trip id="truck37" depart="113.85" from="-1284828477" to="-1334817300#1" departLane="best" type="truck_truck" departSpeed="max"/>
    <trip id="truck38" depart="116.93" from="912368453#12" to="1103848386#1" departLane="best" type="truck_truck"/>
    <trip id="truck39" depart="120.00" from="-652090756#0" to="23650459#5" departLane="best" type="truck_truck"/>
    <trip id="truck40" depart="123.08" from="257692765#1" to="691143809#3" departLane="best" type="truck_truck"/>
    <trip id="truck41" depart="126.16" from="691145137#12" to="-1334817312" departLane="best" type="truck_truck"/>
    <trip id="truck42" depart="129.23" from="-333558548" to="1156527827" departLane="best" type="truck_truck"/>
    <trip id="truck43" depart="132.31" from="-53279867#4" to="1449304890#4" departLane="best" type="truck_truck"/>
    <trip id="truck44" depart="135.39" from="-31452010#3" to="691143809#9" departLane="best" type="truck_truck"/>
    <trip id="truck45" depart="138.47" from="-690187864#5" to="690355196#6" departLane="best" type="truck_truck"/>
    <trip id="truck46" depart="141.54" from="692910573#1" to="23979403#4" departLane="best" type="truck_truck"/>
    <trip id="truck47" depart="144.62" from="-40755926#0" to="-1334817310#2" departLane="best" type="truck_truck"/>
    <trip id="truck48" depart="147.70" from="925193172#4" to="691339338#4" departLane="best" type="truck_truck"/>
    <trip id="truck49" depart="150.77" from="1334817307#1" to="-1347340113#1" departLane="best" type="truck_truck"/>
    <trip id="truck50" depart="153.85" from="27109231#3" to="-605261126#0" departLane="best" type="truck_truck"/>
    <trip id="truck51" depart="156.93" from="1222741583#18" to="912374364#1" departLane="best" type="truck_truck"/>
    <trip id="truck52" depart="160.00" from="691215051#0" to="51214864#1" departLane="best" type="truck_truck"/>
    <trip id="truck53" depart="163.08" from="-1409697574#1" to="23535107#9" departLane="best" type="truck_truck"/>
    <trip id="truck54" depart="166.16" from="208493039#0" to="258025932#1" departLane="best" type="truck_truck"/>
    <trip id="truck55" depart="169.24" from="-1222741583#11" to="691145137#7" departLane="best" type="truck_truck"/>
    <trip id="truck56" depart="172.31" from="-24011166#1" to="-103840645#1" departLane="best" type="truck_truck"/>
    <trip id="truck57" depart="175.39" from="232472316#3" to="27083101#1" departLane="best" type="truck_truck"/>
    <trip id="truck58" depart="178.47" from="208493039#10" to="27108752#0" departLane="best" type="truck_truck"/>
    <trip id="truck59" depart="181.54" from="-1222163960#3" to="23649211#1" departLane="best" type="truck_truck"/>
    <trip id="truck60" depart="184.62" from="-27083100#2" to="-88497548#0" departLane="best" type="truck_truck"/>
    <trip id="truck61" depart="187.70" from="-232715402#5" to="1391188974#3" departLane="best" type="truck_truck" departSpeed="max"/>
    <trip id="truck62" depart="190.77" from="-354909940" to="22576050#9" departLane="best" type="truck_truck" departSpeed="max"/>
    <trip id="truck63" depart="193.85" from="-467058778#15" to="-208136405#2" departLane="best" type="truck_truck"/>
    <trip id="truck64" depart="196.93" from="-690187867#1" to="-611632070#2" departLane="best" type="truck_truck"/>
    <trip id="truck65" depart="200.01" from="-510754407#1" to="925193172#0" departLane="best" type="truck_truck"/>
    <trip id="truck66" depart="203.08" from="202361495#2" to="605093942#0" departLane="best" type="truck_truck"/>
    <trip id="truck67" depart="206.16" from="22576050#6" to="920675375#1" departLane="best" type="truck_truck"/>
    <trip id="truck68" depart="209.24" from="1334817308" to="1342321804#0" departLane="best" type="truck_truck"/>
    <trip id="truck69" depart="212.31" from="-401358083#4" to="-339883506" departLane="best" type="truck_truck"/>
    <trip id="truck70" depart="215.39" from="691145133#1" to="1355096267#1" departLane="best" type="truck_truck"/>
    <trip id="truck71" depart="218.47" from="1412113036#9" to="-24041003#4" departLane="best" type="truck_truck"/>
    <trip id="truck72" depart="221.54" from="24041020#9" to="385204709" departLane="best" type="truck_truck"/>
    <trip id="truck73" depart="224.62" from="693656421" to="1235109779#3" departLane="best" type="truck_truck"/>
    <trip id="truck74" depart="227.70" from="-208136417#5" to="24040599#6" departLane="best" type="truck_truck"/>
    <trip id="truck75" depart="230.78" from="401358083#4" to="48795300#1" departLane="best" type="truck_truck"/>
    <trip id="truck76" depart="233.85" from="-208514985#2" to="202361495#0" departLane="best" type="truck_truck"/>
    <trip id="truck77" depart="236.93" from="208515000#9" to="354909940" departLane="best" type="truck_truck"/>
    <trip id="truck78" depart="240.01" from="-690355194#7" to="1222741583#7" departLane="best" type="truck_truck"/>
    <trip id="truck79" depart="243.08" from="-691215051#0" to="-26642648#0" departLane="best" type="truck_truck"/>
    <trip id="truck80" depart="246.16" from="920675375#1" to="-911116137" departLane="best" type="truck_truck"/>
    <trip id="truck81" depart="249.24" from="30992560#5" to="26642644#1" departLane="best" type="truck_truck"/>
    <trip id="truck82" depart="252.31" from="1312808647#5" to="-1320158851#9" departLane="best" type="truck_truck"/>
    <trip id="truck83" depart="255.39" from="-691145129#6" to="691145138#1" departLane="best" type="truck_truck"/>
    <trip id="truck84" depart="258.47" from="-208907445#7" to="-1427251645#0" departLane="best" type="truck_truck"/>
    <trip id="truck85" depart="261.55" from="1235109779#1" to="-1222741589#1" departLane="best" type="truck_truck"/>
    <trip id="truck86" depart="264.62" from="691145137#14" to="467058778#11" departLane="best" type="truck_truck"/>
    <trip id="truck87" depart="267.70" from="-233042675#3" to="655430041#3" departLane="best" type="truck_truck"/>
    <trip id="truck88" depart="270.78" from="912368456#2" to="31452010#3" departLane="best" type="truck_truck"/>
    <trip id="truck89" depart="273.85" from="30992562#2" to="-208136417#3" departLane="best" type="truck_truck"/>
    <trip id="truck90" depart="276.93" from="-313445158" to="1342321796#2" departLane="best" type="truck_truck"/>
    <trip id="truck91" depart="280.01" from="-24041344#2" to="487759852#22" departLane="best" type="truck_truck"/>
    <trip id="truck92" depart="283.08" from="-925193172#7" to="233042675#3" departLane="best" type="truck_truck"/>
    <trip id="truck93" depart="286.16" from="103840645#1" to="911230567" departLane="best" type="truck_truck"/>
    <trip id="truck94" depart="289.24" from="-690187850#1" to="544059267#2" departLane="best" type="truck_truck"/>
    <trip id="truck95" depart="292.32" from="605261126#23" to="228767496#1" departLane="best" type="truck_truck"/>
    <trip id="truck96" depart="295.39" from="-1409697567" to="702593086#1" departLane="best" type="truck_truck"/>
    <trip id="truck97" depart="298.47" from="-23989765#2" to="-1414112453#2" departLane="best" type="truck_truck"/>
    <trip id="truck98" depart="301.55" from="525940934#3" to="-24041344#2" departLane="best" type="truck_truck"/>
    <trip id="truck99" depart="304.62" from="-1233264332#0" to="605261126#2" departLane="best" type="truck_truck"/>
    <trip id="truck100" depart="307.70" from="691339338#3" to="-911115421#3" departLane="best" type="truck_truck"/>
    <trip id="truck101" depart="310.78" from="-785750009#0" to="26642650#4" departLane="best" type="truck_truck"/>
    <trip id="truck102" depart="313.85" from="257692765#4" to="-53278703#5" departLane="best" type="truck_truck"/>
    <trip id="truck103" depart="316.93" from="-1341390068#1" to="-208514990#1" departLane="best" type="truck_truck"/>
    <trip id="truck104" depart="320.01" from="-40755926#1" to="-1222741583#6" departLane="best" type="truck_truck"/>
    <trip id="truck105" depart="323.09" from="257724387#6" to="1146968966#1" departLane="best" type="truck_truck"/>
    <trip id="truck106" depart="326.16" from="1414763097#3" to="-394695278#3" departLane="best" type="truck_truck"/>
    <trip id="truck107" depart="329.24" from="-911222968#5" to="247610446#1" departLane="best" type="truck_truck"/>
    <trip id="truck108" depart="332.32" from="663149776#1" to="467058778#5" departLane="best" type="truck_truck"/>
    <trip id="truck109" depart="335.39" from="1387053958#2" to="496426080#2" departLane="best" type="truck_truck"/>
    <trip id="truck110" depart="338.47" from="-525676666#0" to="22576030#5" departLane="best" type="truck_truck"/>
    <trip id="truck111" depart="341.55" from="-467058778#15" to="690355196#6" departLane="best" type="truck_truck"/>
    <trip id="truck112" depart="344.62" from="-925193172#7" to="-124482978#0" departLane="best" type="truck_truck"/>
    <trip id="truck113" depart="347.70" from="30992562#0" to="-232715402#3" departLane="best" type="truck_truck"/>
    <trip id="truck114" depart="350.78" from="51214855" to="467058778#11" departLane="best" type="truck_truck"/>
    <trip id="truck115" depart="353.86" from="630928098" to="-1334817308" departLane="best" type="truck_truck"/>
    <trip id="truck116" depart="356.93" from="-544059267#0" to="-1320158834#1" departLane="best" type="truck_truck"/>
    <trip id="truck117" depart="360.01" from="-124482977#0" to="1236757226#2" departLane="best" type="truck_truck"/>
    <trip id="truck118" depart="363.09" from="207895701#0" to="-124482978#0" departLane="best" type="truck_truck"/>
    <trip id="truck119" depart="366.16" from="23979404#15" to="-920731517#2" departLane="best" type="truck_truck"/>
    <trip id="truck120" depart="369.24" from="-208907445#7" to="228464702#4" departLane="best" type="truck_truck"/>
    <trip id="truck121" depart="372.32" from="1211482736#1" to="-912374363#2" departLane="best" type="truck_truck"/>
    <trip id="truck122" depart="375.39" from="88497549#3" to="202506787#2" departLane="best" type="truck_truck"/>
    <trip id="truck123" depart="378.47" from="-911116137" to="1431718356#2-AddedOnRampEdge" departLane="best" type="truck_truck"/>
    <trip id="truck124" depart="381.55" from="693656427#0" to="-24024772#0" departLane="best" type="truck_truck"/>
    <trip id="truck125" depart="384.63" from="24024772#0" to="88497549#1" departLane="best" type="truck_truck" departSpeed="max"/>
    <trip id="truck126" depart="387.70" from="23649211#7" to="-154454106#1" departLane="best" type="truck_truck"/>
    <trip id="truck127" depart="390.78" from="375991982#1" to="1416465077#6" departLane="best" type="truck_truck"/>
    <trip id="truck128" depart="393.86" from="-24041344#13" to="255768618#2" departLane="best" type="truck_truck"/>
    <trip id="truck129" depart="396.93" from="652090756#1" to="26902000#17" departLane="best" type="truck_truck"/>
    <trip id="truck130" depart="400.01" from="88497549#6" to="-235260970#6" departLane="best" type="truck_truck"/>
    <trip id="truck131" depart="403.09" from="928099278" to="544489408#2" departLane="best" type="truck_truck"/>
    <trip id="truck132" depart="406.16" from="-781783320#0" to="1427251618#2" departLane="best" type="truck_truck"/>
    <trip id="truck133" depart="409.24" from="1380159113" to="-257724387#8" departLane="best" type="truck_truck" departSpeed="max"/>
    <trip id="truck134" depart="412.32" from="1356123647#1" to="693129953#1" departLane="best" type="truck_truck"/>
    <trip id="truck135" depart="415.40" from="611632070#1" to="-385200736#1" departLane="best" type="truck_truck"/>
    <trip id="truck136" depart="418.47" from="-1320158852#6" to="1222882868#2" departLane="best" type="truck_truck"/>
    <trip id="truck137" depart="421.55" from="208493039#23" to="693656416#6" departLane="best" type="truck_truck"/>
    <trip id="truck138" depart="424.63" from="691145136#6" to="154454106#2" departLane="best" type="truck_truck"/>
    <trip id="truck139" depart="427.70" from="-445143940#1" to="384959688#1" departLane="best" type="truck_truck"/>
    <trip id="truck140" depart="430.78" from="1431718357" to="-1427251617#6" departLane="best" type="truck_truck"/>
    <trip id="truck141" depart="433.86" from="1235109779#2" to="208518325#5" departLane="best" type="truck_truck"/>
    <trip id="truck142" depart="436.93" from="1185785538#4" to="186752465#6" departLane="best" type="truck_truck"/>
    <trip id="truck143" depart="440.01" from="314480719#3" to="691145137#15" departLane="best" type="truck_truck"/>
    <trip id="truck144" depart="443.09" from="1446864466#5" to="-216728662#7" departLane="best" type="truck_truck"/>
    <trip id="truck145" depart="446.17" from="912363096#9" to="38566695#2" departLane="best" type="truck_truck"/>
    <trip id="truck146" depart="449.24" from="1320158817#1" to="1409740308#1" departLane="best" type="truck_truck"/>
    <trip id="truck147" depart="452.32" from="911115666#1" to="-1334817306#4" departLane="best" type="truck_truck"/>
    <trip id="truck148" depart="455.40" from="22576050#8" to="1391188974#6" departLane="best" type="truck_truck"/>
    <trip id="truck149" depart="458.47" from="920731516#6" to="-24040748#6" departLane="best" type="truck_truck"/>
    <trip id="truck150" depart="461.55" from="691218158#0" to="-24041344#14" departLane="best" type="truck_truck"/>
    <trip id="truck151" depart="464.63" from="1044663634" to="-26540248#2" departLane="best" type="truck_truck"/>
    <trip id="truck152" depart="467.70" from="-498572667" to="1292156359#1" departLane="best" type="truck_truck" departSpeed="max"/>
    <trip id="truck153" depart="470.78" from="-1450165106#5" to="911221033#1" departLane="best" type="truck_truck"/>
    <trip id="truck154" depart="473.86" from="1342321804#3" to="-781783320#3" departLane="best" type="truck_truck"/>
    <trip id="truck155" depart="476.94" from="255775042#3" to="189199968#1" departLane="best" type="truck_truck"/>
    <trip id="truck156" depart="480.01" from="-445143939#1" to="920731516#4" departLane="best" type="truck_truck"/>
    <trip id="truck157" depart="483.09" from="23535107#9" to="-747775239" departLane="best" type="truck_truck"/>
    <trip id="truck158" depart="486.17" from="920723141#1" to="257724840#5" departLane="best" type="truck_truck"/>
    <trip id="truck159" depart="489.24" from="-287994386" to="527979087" departLane="best" type="truck_truck" departSpeed="max"/>
    <trip id="truck160" depart="492.32" from="1380159113" to="-349962357#4" departLane="best" type="truck_truck" departSpeed="max"/>
    <trip id="truck161" depart="495.40" from="-208514990#2" to="525676665#0" departLane="best" type="truck_truck"/>
    <trip id="truck162" depart="498.47" from="-228943295#2" to="257692772#1" departLane="best" type="truck_truck"/>
    <trip id="truck163" depart="501.55" from="1334817299#1" to="-26642644#16" departLane="best" type="truck_truck"/>
    <trip id="truck164" depart="504.63" from="1350005409#6" to="-1222882866" departLane="best" type="truck_truck"/>
    <trip id="truck165" depart="507.71" from="1300897071#14" to="-1222882872#1" departLane="best" type="truck_truck"/>
    <trip id="truck166" depart="510.78" from="1183572641" to="-1222882864" departLane="best" type="truck_truck"/>
    <trip id="truck167" depart="513.86" from="-208493036#8" to="911115125#0" departLane="best" type="truck_truck"/>
    <trip id="truck168" depart="516.94" from="40755935" to="-24040756#0" departLane="best" type="truck_truck"/>
    <trip id="truck169" depart="520.01" from="1304966308#1" to="208493039#1" departLane="best" type="truck_truck"/>
    <trip id="truck170" depart="523.09" from="690187862#6" to="-23979402#8" departLane="best" type="truck_truck"/>
    <trip id="truck171" depart="526.17" from="349962357#4" to="1222741583#4" departLane="best" type="truck_truck"/>
    <trip id="truck172" depart="529.24" from="-1409740306#0" to="-675942651#0" departLane="best" type="truck_truck"/>
    <trip id="truck173" depart="532.32" from="-24039803#9" to="690355194#7" departLane="best" type="truck_truck"/>
    <trip id="truck174" depart="535.40" from="554048065#1" to="-154454120#3" departLane="best" type="truck_truck"/>
    <trip id="truck175" depart="538.48" from="911218567#1" to="295089210#2" departLane="best" type="truck_truck"/>
    <trip id="truck176" depart="541.55" from="31452010#0" to="401358083#13" departLane="best" type="truck_truck" departSpeed="max"/>
    <trip id="truck177" depart="544.63" from="436442942#3" to="691215052#0" departLane="best" type="truck_truck"/>
    <trip id="truck178" depart="547.71" from="1408203413#7" to="88497026#3" departLane="best" type="truck_truck"/>
    <trip id="truck179" depart="550.78" from="911218567#1" to="690187845" departLane="best" type="truck_truck"/>
    <trip id="truck180" depart="553.86" from="-51214856" to="682835013#2" departLane="best" type="truck_truck"/>
    <trip id="truck181" depart="556.94" from="1416465077#6" to="1208249030#1" departLane="best" type="truck_truck"/>
    <trip id="truck182" depart="560.01" from="1279020894#10" to="-30992560#5" departLane="best" type="truck_truck"/>
    <trip id="truck183" depart="563.09" from="663149776#4" to="925184357" departLane="best" type="truck_truck"/>
    <trip id="truck184" depart="566.17" from="26642644#3" to="255768618#4" departLane="best" type="truck_truck"/>
    <trip id="truck185" depart="569.25" from="208514988#1" to="1208249030#6" departLane="best" type="truck_truck"/>
    <trip id="truck186" depart="572.32" from="1387053958#3" to="23979404#26" departLane="best" type="truck_truck"/>
    <trip id="truck187" depart="575.40" from="691145136#0" to="-189199969#7" departLane="best" type="truck_truck"/>
    <trip id="truck188" depart="578.48" from="-30992562#3" to="485180901#4" departLane="best" type="truck_truck"/>
    <trip id="truck189" depart="581.55" from="24039803#6" to="-183604223#2" departLane="best" type="truck_truck"/>
    <trip id="truck190" depart="584.63" from="234259110" to="-1409740304#3" departLane="best" type="truck_truck" departSpeed="max"/>
    <trip id="truck191" depart="587.71" from="-124482977#4" to="53279867#5" departLane="best" type="truck_truck"/>
    <trip id="truck192" depart="590.78" from="228943295#6" to="1412113040#3" departLane="best" type="truck_truck"/>
    <trip id="truck193" depart="593.86" from="912363096#1" to="208518325#9" departLane="best" type="truck_truck"/>
    <trip id="truck194" depart="596.94" from="222570191#3" to="1222741587#1" departLane="best" type="truck_truck"/>
    <trip id="truck195" depart="600.02" from="222570196#2" to="785750009#0" departLane="best" type="truck_truck"/>
    <trip id="truck196" depart="603.09" from="26642648#7" to="384959682" departLane="best" type="truck_truck"/>
    <trip id="truck197" depart="606.17" from="925184025" to="911220199" departLane="best" type="truck_truck" departSpeed="max"/>
    <trip id="truck198" depart="609.25" from="925193171#2" to="23477158#16" departLane="best" type="truck_truck"/>
    <trip id="truck199" depart="612.32" from="-1420130675" to="691145135#2" departLane="best" type="truck_truck"/>
    <trip id="truck200" depart="615.40" from="-31452010#3" to="385200734#10" departLane="best" type="truck_truck"/>
    <trip id="truck201" depart="618.48" from="-1424920393#1" to="1427251601" departLane="best" type="truck_truck"/>
    <trip id="truck202" depart="621.55" from="691143808#3" to="210720209#1" departLane="best" type="truck_truck"/>
    <trip id="truck203" depart="624.63" from="-247610443#1" to="258025929#2" departLane="best" type="truck_truck" departSpeed="max"/>
    <trip id="truck204" depart="627.71" from="257692772#2" to="605261126#9" departLane="best" type="truck_truck"/>
    <trip id="truck205" depart="630.79" from="-26642650#12" to="88496051#3" departLane="best" type="truck_truck"/>
    <trip id="truck206" depart="633.86" from="31541469#10" to="-208514985#4" departLane="best" type="truck_truck"/>
    <trip id="truck207" depart="636.94" from="-1420130675" to="-1085142670#1" departLane="best" type="truck_truck"/>
    <trip id="truck208" depart="640.02" from="1192570943#0" to="288039682#2" departLane="best" type="truck_truck"/>
    <trip id="truck209" depart="643.09" from="-912357111#1" to="-40941251#1" departLane="best" type="truck_truck"/>
    <trip id="truck210" depart="646.17" from="257692765#5" to="137946507#9" departLane="best" type="truck_truck"/>
    <trip id="truck211" depart="649.25" from="-911221107#1" to="88497548#1" departLane="best" type="truck_truck"/>
    <trip id="truck212" depart="652.32" from="1155426004#6" to="-911222968#3" departLane="best" type="truck_truck"/>
    <trip id="truck213" depart="655.40" from="24041344#15" to="1183572638" departLane="best" type="truck_truck"/>
    <trip id="truck214" depart="658.48" from="232715402#4" to="920731517#2" departLane="best" type="truck_truck"/>
    <trip id="truck215" depart="661.56" from="-26642648#6" to="539985272#0" departLane="best" type="truck_truck"/>
    <trip id="truck216" depart="664.63" from="208514985#10" to="1222741580#1" departLane="best" type="truck_truck"/>
    <trip id="truck217" depart="667.71" from="-23979402#3" to="539985272#0" departLane="best" type="truck_truck"/>
    <trip id="truck218" depart="670.79" from="1185785531#1" to="691215052#1" departLane="best" type="truck_truck"/>
    <trip id="truck219" depart="673.86" from="554048065#0" to="-1412113036#6" departLane="best" type="truck_truck" departSpeed="max"/>
    <trip id="truck220" depart="676.94" from="23535107#6" to="1222741587#1" departLane="best" type="truck_truck"/>
    <trip id="truck221" depart="680.02" from="1427251618#2" to="-1334817299#2" departLane="best" type="truck_truck"/>
    <trip id="truck222" depart="683.09" from="-247610446#1" to="-1085142670#2" departLane="best" type="truck_truck"/>
    <trip id="truck223" depart="686.17" from="-1433199431#1" to="343641304#1" departLane="best" type="truck_truck"/>
    <trip id="truck224" depart="689.25" from="-690187850#5" to="-911221033#1" departLane="best" type="truck_truck"/>
    <trip id="truck225" depart="692.33" from="466839422#5" to="-26642648#6" departLane="best" type="truck_truck"/>
    <trip id="truck226" depart="695.40" from="1312808647#7" to="1412113036#4" departLane="best" type="truck_truck"/>
    <trip id="truck227" depart="698.48" from="-605261126#7" to="785750009#3" departLane="best" type="truck_truck"/>
    <trip id="truck228" depart="701.56" from="1433199431#2" to="-1320158852#2" departLane="best" type="truck_truck"/>
    <trip id="truck229" depart="704.63" from="228767496#2" to="496426080#2" departLane="best" type="truck_truck"/>
    <trip id="truck230" depart="707.71" from="692910546#5" to="38566687" departLane="best" type="truck_truck"/>
    <trip id="truck231" depart="710.79" from="-920723063#4" to="-781783320#4" departLane="best" type="truck_truck"/>
    <trip id="truck232" depart="713.86" from="-1449304890#4" to="1222882867" departLane="best" type="truck_truck"/>
    <trip id="truck233" depart="716.94" from="-611632070#5" to="-385200736#1" departLane="best" type="truck_truck"/>
    <trip id="truck234" depart="720.02" from="436442942#3" to="1334817302#0" departLane="best" type="truck_truck"/>
    <trip id="truck235" depart="723.10" from="23649211#7" to="-208514986#3" departLane="best" type="truck_truck"/>
    <trip id="truck236" depart="726.17" from="-690187841#3" to="-208514985#11" departLane="best" type="truck_truck"/>
    <trip id="truck237" depart="729.25" from="-124482977#11" to="1374191444#4" departLane="best" type="truck_truck"/>
    <trip id="truck238" depart="732.33" from="-544489408#2" to="-1334817310#3" departLane="best" type="truck_truck" departSpeed="max"/>
    <trip id="truck239" depart="735.40" from="24011166#1" to="30992559#2" departLane="best" type="truck_truck"/>
    <trip id="truck240" depart="738.48" from="175953577#2" to="-255768618#3" departLane="best" type="truck_truck"/>
    <trip id="truck241" depart="741.56" from="-385204712#3" to="1155278555#2" departLane="best" type="truck_truck"/>
    <trip id="truck242" depart="744.63" from="1409740305#0" to="693129953#1" departLane="best" type="truck_truck"/>
    <trip id="truck243" depart="747.71" from="26642648#7" to="-920732520#2" departLane="best" type="truck_truck"/>
    <trip id="truck244" depart="750.79" from="487759852#5" to="-401358083#3" departLane="best" type="truck_truck"/>
    <trip id="truck245" depart="753.87" from="154454126#0" to="-467058778#6" departLane="best" type="truck_truck"/>
    <trip id="truck246" depart="756.94" from="26540248#3" to="702593086#0" departLane="best" type="truck_truck"/>