<?xml version="1.0" encoding="UTF-8"?>

<!-- generated on 2025-11-19 05:33:11.965204 by osmWebWizard.py v1_24_0+0000-b72eb3fabc8
<configuration>
    <net-file value="/home/yarl/Desktop/sumo/tools/2025-11-19-05-32-17/osm.net.xml.gz"/>
    <output-trip-file value="/home/yarl/Desktop/sumo/tools/2025-11-19-05-32-17/osm.passenger.trips.xml"/>
    <route-file value="/home/yarl/Desktop/sumo/tools/2025-11-19-05-32-17/osm.passenger.rou.xml"/>
    <prefix value="veh"/>
    <trip-attributes value="departLane=&quot;best&quot;"/>
    <fringe-start-attributes value="departSpeed=&quot;max&quot;"/>
    <vehicle-class value="passenger"/>
    <lanes value="True"/>
    <fringe-factor value="5"/>
    <allow-fringe.min-length value="1000.0"/>
    <edge-permission value="passenger"/>
    <via-edge-types value="highway.motorway,highway.motorway_link,highway.trunk_link,highway.primary_link,highway.secondary_link,highway.tertiary_link"/>
    <seed value="44"/>
    <min-distance value="300.0"/>
    <min-distance.fringe value="10.0"/>
    <remove-loops value="True"/>
    <insertion-density value="30.0"/>
</configuration>
-->

<routes xmlns:xsi="http://www.w3.org/2001/XMLSchema-instance" xsi:noNamespaceSchemaLocation="http://sumo.dlr.de/xsd/routes_file.xsd">
    <vType id="veh_passenger" vClass="passenger"/>
    <trip id="veh0" depart="0.00" from="1300898059#1" to="1450165106#5" departLane="best" type="veh_passenger"/>
    <trip id="veh1" depart="0.31" from="654549704" to="-26642646#0" departLane="best" type="veh_passenger"/>
    <trip id="veh2" depart="0.62" from="-40941250#9" to="-125617974" departLane="best" type="veh_passenger"/>
    <trip id="veh3" depart="0.92" from="-208136417#5" to="-1193892425" departLane="best" type="veh_passenger"/>
    <trip id="veh4" depart="1.23" from="-24040748#7" to="1424834372" departLane="best" type="veh_passenger"/>
    <trip id="veh5" depart="1.54" from="925185053" to="257692772#1" departLane="best" type="veh_passenger"/>
    <trip id="veh6" depart="1.85" from="1222741597" to="1312808648#3" departLane="best" type="veh_passenger"/>
    <trip id="veh7" depart="2.15" from="24041356#3" to="1146968967#3" departLane="best" type="veh_passenger"/>
    <trip id="veh8" depart="2.46" from="-1409740307#0" to="539985272#0" departLane="best" type="veh_passenger"/>
    <trip id="veh9" depart="2.77" from="22576050#8" to="-207810531#1" departLane="best" type="veh_passenger"/>
    <trip id="veh10" depart="3.08" from="-1409740301#0" to="-1446517203#0" departLane="best" type="veh_passenger"/>
    <trip id="veh11" depart="3.38" from="912363096#2" to="-175953577#3" departLane="best" type="veh_passenger"/>
    <trip id="veh12" depart="3.69" from="228464700#0" to="912374364#5" departLane="best" type="veh_passenger"/>
    <trip id="veh13" depart="4.00" from="-1320158831#2" to="124841587#1" departLane="best" type="veh_passenger"/>
    <trip id="veh14" depart="4.31" from="1391190026" to="693656425#2" departLane="best" type="veh_passenger"/>
    <trip id="veh15" depart="4.62" from="-288039682#11" to="-690355197" departLane="best" type="veh_passenger"/>
    <trip id="veh16" depart="4.92" from="-536817572" to="-1341390068#1" departLane="best" type="veh_passenger"/>
    <trip id="veh17" depart="5.23" from="1334817307#1" to="-1320158852#5" departLane="best" type="veh_passenger"/>
    <trip id="veh18" depart="5.54" from="23535107#17" to="1155278555#0" departLane="best" type="veh_passenger"/>
    <trip id="veh19" depart="5.85" from="48795303#1" to="232472316#3" departLane="best" type="veh_passenger"/>
    <trip id="veh20" depart="6.15" from="208493039#7" to="1449304898" departLane="best" type="veh_passenger"/>
    <trip id="veh21" depart="6.46" from="-477490621#0" to="1387053644#1" departLane="best" type="veh_passenger"/>
    <trip id="veh22" depart="6.77" from="40755923#2" to="248218178#1" departLane="best" type="veh_passenger"/>
    <trip id="veh23" depart="7.08" from="1165287687#1" to="487759852#27" departLane="best" type="veh_passenger"/>
    <trip id="veh24" depart="7.38" from="510754411" to="-1334817303#1" departLane="best" type="veh_passenger"/>
    <trip id="veh25" depart="7.69" from="-24041003#1" to="-48795300#1" departLane="best" type="veh_passenger"/>
    <trip id="veh26" depart="8.00" from="-1222741583#29" to="337560634#2" departLane="best" type="veh_passenger"/>
    <trip id="veh27" depart="8.31" from="234259110" to="154454106#0" departLane="best" type="veh_passenger" departSpeed="max"/>
    <trip id="veh28" depart="8.62" from="928099276#0" to="1208249030#6" departLane="best" type="veh_passenger"/>
    <trip id="veh29" depart="8.92" from="-31510683#2" to="-206984892#0" departLane="best" type="veh_passenger"/>
    <trip id="veh30" depart="9.23" from="1146968967#2" to="53278703#7" departLane="best" type="veh_passenger"/>
    <trip id="veh31" depart="9.54" from="214215470#3-AddedOnRampEdge" to="-1361117795#5" departLane="best" type="veh_passenger"/>
    <trip id="veh32" depart="9.85" from="1334817302#1" to="-1334817310#3" departLane="best" type="veh_passenger"/>
    <trip id="veh33" depart="10.15" from="228168651#9" to="-208520936#2" departLane="best" type="veh_passenger"/>
    <trip id="veh34" depart="10.46" from="-26642648#7" to="23535107#15" departLane="best" type="veh_passenger"/>
    <trip id="veh35" depart="10.77" from="496426098#2" to="228767495#5" departLane="best" type="veh_passenger"/>
    <trip id="veh36" depart="11.08" from="-88497026#3" to="23649211#9" departLane="best" type="veh_passenger" departSpeed="max"/>
    <trip id="veh37" depart="11.38" from="-691145129#1" to="-1180570087" departLane="best" type="veh_passenger"/>
    <trip id="veh38" depart="11.69" from="-691145130#1" to="255775042#7" departLane="best" type="veh_passenger"/>
    <trip id="veh39" depart="12.00" from="228464700#2" to="-314480719#8" departLane="best" type="veh_passenger"/>
    <trip id="veh40" depart="12.31" from="51822949#0" to="498583688#3" departLane="best" type="veh_passenger"/>
    <trip id="veh41" depart="12.62" from="-691218156#7" to="912368453#1" departLane="best" type="veh_passenger"/>
    <trip id="veh42" depart="12.92" from="-682835984#1" to="-1396148980#1" departLane="best" type="veh_passenger"/>
    <trip id="veh43" depart="13.23" from="1420130624#0" to="682835983#11" departLane="best" type="veh_passenger"/>
    <trip id="veh44" depart="13.54" from="208515007#0" to="154454126#11" departLane="best" type="veh_passenger"/>
    <trip id="veh45" depart="13.85" from="1409740296#0" to="-887012116#1" departLane="best" type="veh_passenger"/>
    <trip id="veh46" depart="14.15" from="-911115667#3" to="1312808647#8" departLane="best" type="veh_passenger"/>
    <trip id="veh47" depart="14.46" from="1446864466#5" to="911220277#1" departLane="best" type="veh_passenger"/>
    <trip id="veh48" depart="14.77" from="-1409740305#0" to="-690187845" departLane="best" type="veh_passenger"/>
    <trip id="veh49" depart="15.08" from="911116547" to="23979404#30" departLane="best" type="veh_passenger"/>
    <trip id="veh50" depart="15.39" from="-1409740308#1" to="1356123647#1" departLane="best" type="veh_passenger"/>
    <trip id="veh51" depart="15.69" from="23477158#7" to="693651829#8" departLane="best" type="veh_passenger"/>
    <trip id="veh52" depart="16.00" from="-1422516696" to="691218156#8" departLane="best" type="veh_passenger"/>
    <trip id="veh53" depart="16.31" from="384959683#3" to="-785750009#10" departLane="best" type="veh_passenger"/>
    <trip id="veh54" depart="16.62" from="1427251622#1" to="48795303#7" departLane="best" type="veh_passenger"/>
    <trip id="veh55" depart="16.92" from="-527979087" to="257724840#4" departLane="best" type="veh_passenger" departSpeed="max"/>
    <trip id="veh56" depart="17.23" from="154454126#2" to="-1409740307#1" departLane="best" type="veh_passenger"/>
    <trip id="veh57" depart="17.54" from="-690357030" to="1320158852#4" departLane="best" type="veh_passenger"/>
    <trip id="veh58" depart="17.85" from="-233042675#3" to="911221034" departLane="best" type="veh_passenger"/>
    <trip id="veh59" depart="18.15" from="-544489408#1" to="-525940934#1" departLane="best" type="veh_passenger"/>
    <trip id="veh60" depart="18.46" from="208514994#0" to="1431718356#2-AddedOnRampEdge" departLane="best" type="veh_passenger" departSpeed="max"/>
    <trip id="veh61" depart="18.77" from="1412113036#11" to="693651829#1" departLane="best" type="veh_passenger"/>
    <trip id="veh62" depart="19.08" from="-1414112453#1" to="693651829#8" departLane="best" type="veh_passenger"/>
    <trip id="veh63" depart="19.39" from="911109625" to="247610446#1" departLane="best" type="veh_passenger"/>
    <trip id="veh64" depart="19.69" from="40941250#14" to="124482977#11" departLane="best" type="veh_passenger"/>
    <trip id="veh65" depart="20.00" from="912368453#12" to="30992560#3" departLane="best" type="veh_passenger"/>
    <trip id="veh66" depart="20.31" from="24041003#5" to="1374191444#6" departLane="best" type="veh_passenger"/>
    <trip id="veh67" depart="20.62" from="-401358083#5" to="257692765#6" departLane="best" type="veh_passenger"/>
    <trip id="veh68" depart="20.92" from="27064537#3" to="-1155278555#0" departLane="best" type="veh_passenger"/>
    <trip id="veh69" depart="21.23" from="-912357110#2" to="1447089501#1" departLane="best" type="veh_passenger" departSpeed="max"/>
    <trip id="veh70" depart="21.54" from="-384959685" to="-22576030#3" departLane="best" type="veh_passenger"/>
    <trip id="veh71" depart="21.85" from="-287994386" to="-1222741584#1" departLane="best" type="veh_passenger" departSpeed="max"/>
    <trip id="veh72" depart="22.15" from="-208514986#1" to="1279020894#9" departLane="best" type="veh_passenger"/>
    <trip id="veh73" depart="22.46" from="1414763094#4" to="23477158#17" departLane="best" type="veh_passenger"/>
    <trip id="veh74" depart="22.77" from="693656426" to="232715402#5" departLane="best" type="veh_passenger"/>
    <trip id="veh75" depart="23.08" from="24024778#4" to="257692765#1" departLane="best" type="veh_passenger"/>
    <trip id="veh76" depart="23.39" from="-925193171#1" to="214215470#0" departLane="best" type="veh_passenger"/>
    <trip id="veh77" depart="23.69" from="487759852#0" to="-1222741587#1" departLane="best" type="veh_passenger" departSpeed="max"/>
    <trip id="veh78" depart="24.00" from="40755923#9" to="-208514985#5" departLane="best" type="veh_passenger"/>
    <trip id="veh79" depart="24.31" from="-1222741585" to="-1409740311" departLane="best" type="veh_passenger"/>
    <trip id="veh80" depart="24.62" from="154454128#2" to="663149776#4" departLane="best" type="veh_passenger"/>
    <trip id="veh81" depart="24.92" from="702593086#13" to="-24041344#10" departLane="best" type="veh_passenger"/>
    <trip id="veh82" depart="25.23" from="1334817297#0" to="911219390#0" departLane="best" type="veh_passenger" departSpeed="max"/>
    <trip id="veh83" depart="25.54" from="690355200" to="496426080#1" departLane="best" type="veh_passenger"/>
    <trip id="veh84" depart="25.85" from="-539985277#0" to="-702593086#10" departLane="best" type="veh_passenger"/>
    <trip id="veh85" depart="26.15" from="-24011166#0" to="-691145130#5" departLane="best" type="veh_passenger"/>
    <trip id="veh86" depart="26.46" from="1300897071#12" to="40941250#11" departLane="best" type="veh_passenger"/>
    <trip id="veh87" depart="26.77" from="23978205#3" to="-258487339#2" departLane="best" type="veh_passenger"/>
    <trip id="veh88" depart="27.08" from="-26642648#0" to="1374191445#3" departLane="best" type="veh_passenger"/>
    <trip id="veh89" depart="27.39" from="691145129#0" to="1409697570#1" departLane="best" type="veh_passenger"/>
    <trip id="veh90" depart="27.69" from="401358083#17" to="257692765#1" departLane="best" type="veh_passenger"/>
    <trip id="veh91" depart="28.00" from="690187862#4" to="1416465077#1" departLane="best" type="veh_passenger"/>
    <trip id="veh92" depart="28.31" from="1222741590#4" to="1388681517#3" departLane="best" type="veh_passenger"/>
    <trip id="veh93" depart="28.62" from="40941250#12" to="-785750009#10" departLane="best" type="veh_passenger"/>
    <trip id="veh94" depart="28.92" from="-30992559#1" to="53276944#0" departLane="best" type="veh_passenger"/>
    <trip id="veh95" depart="29.23" from="1408203413#3" to="23534970#1" departLane="best" type="veh_passenger"/>
    <trip id="veh96" depart="29.54" from="-258487339#2" to="-1334817299#1" departLane="best" type="veh_passenger"/>
    <trip id="veh97" depart="29.85" from="-40941250#6" to="1341390075#1" departLane="best" type="veh_passenger"/>
    <trip id="veh98" depart="30.15" from="-1312808648#2" to="-693656419" departLane="best" type="veh_passenger"/>
    <trip id="veh99" depart="30.46" from="911115920" to="1350005409#2" departLane="best" type="veh_passenger"/>
    <trip id="veh100" depart="30.77" from="-1155278555#1" to="445143939#0" departLane="best" type="veh_passenger"/>
    <trip id="veh101" depart="31.08" from="-911219390#0" to="-26540248#2" departLane="best" type="veh_passenger"/>
    <trip id="veh102" depart="31.39" from="228944248#4" to="24024772#3" departLane="best" type="veh_passenger"/>
    <trip id="veh103" depart="31.69" from="-928099276#11" to="258487338#3" departLane="best" type="veh_passenger"/>
    <trip id="veh104" depart="32.00" from="690187844#1" to="1185785535#0" departLane="best" type="veh_passenger"/>
    <trip id="veh105" depart="32.31" from="1412113036#6" to="-1155278555#3" departLane="best" type="veh_passenger"/>
    <trip id="veh106" depart="32.62" from="208514980#3" to="-911222968#0" departLane="best" type="veh_passenger"/>
    <trip id="veh107" depart="32.92" from="23534970#2" to="354909940" departLane="best" type="veh_passenger"/>
    <trip id="veh108" depart="33.23" from="1146968967#3" to="24024778#3" departLane="best" type="veh_passenger"/>
    <trip id="veh109" depart="33.54" from="911115667#3" to="-258025940#0" departLane="best" type="veh_passenger"/>
    <trip id="veh110" depart="33.85" from="40755936#1" to="1409740304#2" departLane="best" type="veh_passenger"/>
    <trip id="veh111" depart="34.15" from="911117082" to="-1409740307#1" departLane="best" type="veh_passenger"/>
    <trip id="veh112" depart="34.46" from="1222882872#0" to="-245951650#4" departLane="best" type="veh_passenger"/>
    <trip id="veh113" depart="34.77" from="-615947439#1" to="691145131#1" departLane="best" type="veh_passenger"/>
    <trip id="veh114" depart="35.08" from="1427251608#0" to="1211482741#1" departLane="best" type="veh_passenger"/>
    <trip id="veh115" depart="35.39" from="912368453#13" to="-1342321805" departLane="best" type="veh_passenger"/>
    <trip id="veh116" depart="35.69" from="-1222741597" to="384959687#3" departLane="best" type="veh_passenger"/>
    <trip id="veh117" depart="36.00" from="154454120#1" to="51214855" departLane="best" type="veh_passenger"/>
    <trip id="veh118" depart="36.31" from="1412113036#1" to="911221107#1" departLane="best" type="veh_passenger"/>
    <trip id="veh119" depart="36.62" from="1103848386#0" to="-510754407#2" departLane="best" type="veh_passenger"/>
    <trip id="veh120" depart="36.92" from="690355189#0" to="1446864466#6" departLane="best" type="veh_passenger"/>
    <trip id="veh121" depart="37.23" from="-1284828477" to="-1211482741#1" departLane="best" type="veh_passenger" departSpeed="max"/>
    <trip id="veh122" depart="37.54" from="-1222741584#1" to="27108754#7" departLane="best" type="veh_passenger"/>
    <trip id="veh123" depart="37.85" from="228944248#5" to="-208136405#2" departLane="best" type="veh_passenger"/>
    <trip id="veh124" depart="38.15" from="40755926#4" to="385204710#0" departLane="best" type="veh_passenger"/>
    <trip id="veh125" depart="38.46" from="228767495#4" to="208493039#7" departLane="best" type="veh_passenger"/>
    <trip id="veh126" depart="38.77" from="1334817305#2" to="257692770#2" departLane="best" type="veh_passenger"/>
    <trip id="veh127" depart="39.08" from="1235109779#4" to="781783320#4" departLane="best" type="veh_passenger"/>
    <trip id="veh128" depart="39.39" from="208493047#4" to="24041003#0" departLane="best" type="veh_passenger"/>
    <trip id="veh129" depart="39.69" from="702593086#14" to="920731516#4" departLane="best" type="veh_passenger"/>
    <trip id="veh130" depart="40.00" from="1427251618#3" to="-208136396#3" departLane="best" type="veh_passenger"/>
    <trip id="veh131" depart="40.31" from="1424832066#8" to="697666545#2" departLane="best" type="veh_passenger"/>
    <trip id="veh132" depart="40.62" from="-354909940" to="-690187867#0" departLane="best" type="veh_passenger" departSpeed="max"/>
    <trip id="veh133" depart="40.92" from="-691145131#0" to="-527979094#2" departLane="best" type="veh_passenger"/>
    <trip id="veh134" depart="41.23" from="466839422#3" to="1447089501#1" departLane="best" type="veh_passenger"/>
    <trip id="veh135" depart="41.54" from="-1422516706" to="1424832066#8" departLane="best" type="veh_passenger"/>
    <trip id="veh136" depart="41.85" from="255768618#2" to="-124482977#5" departLane="best" type="veh_passenger"/>
    <trip id="veh137" depart="42.15" from="-313445158" to="-1222741583#23" departLane="best" type="veh_passenger"/>
    <trip id="veh138" depart="42.46" from="255768618#3" to="1300898059#3" departLane="best" type="veh_passenger"/>
    <trip id="veh139" depart="42.77" from="-1222741583#20" to="-611632070#5" departLane="best" type="veh_passenger"/>
    <trip id="veh140" depart="43.08" from="-30811931#4" to="208472461#1" departLane="best" type="veh_passenger"/>
    <trip id="veh141" depart="43.39" from="1326103722" to="1334817301" departLane="best" type="veh_passenger"/>
    <trip id="veh142" depart="43.69" from="1085142625#1" to="-1326103723" departLane="best" type="veh_passenger"/>
    <trip id="veh143" depart="44.00" from="-928099276#9" to="233432897#2" departLane="best" type="veh_passenger"/>
    <trip id="veh144" depart="44.31" from="1428240092" to="208518325#1" departLane="best" type="veh_passenger"/>
    <trip id="veh145" depart="44.62" from="-24041003#8" to="-1334817300#1" departLane="best" type="veh_passenger"/>
    <trip id="veh146" depart="44.92" from="334057433#3" to="26540252#1" departLane="best" type="veh_passenger"/>
    <trip id="veh147" depart="45.23" from="23650459#6" to="912368453#2" departLane="best" type="veh_passenger"/>
    <trip id="veh148" depart="45.54" from="-911222968#4" to="27262213#1" departLane="best" type="veh_passenger"/>
    <trip id="veh149" depart="45.85" from="-702593086#9" to="222570196#1" departLane="best" type="veh_passenger"/>
    <trip id="veh150" depart="46.16" from="691339338#1" to="1387053644#1" departLane="best" type="veh_passenger"/>
    <trip id="veh151" depart="46.46" from="22576050#4" to="925186170" departLane="best" type="veh_passenger"/>
    <trip id="veh152" depart="46.77" from="1409740303#0" to="-554048065#0" departLane="best" type="veh_passenger"/>
    <trip id="veh153" depart="47.08" from="911230140#0" to="24041003#3" departLane="best" type="veh_passenger"/>
    <trip id="veh154" depart="47.39" from="-928099276#5" to="-702593086#10" departLane="best" type="veh_passenger"/>
    <trip id="veh155" depart="47.69" from="920690085#0" to="189199968#3" departLane="best" type="veh_passenger"/>
    <trip id="veh156" depart="48.00" from="385200734#11" to="-605093942#4" departLane="best" type="veh_passenger"/>
    <trip id="veh157" depart="48.31" from="51822949#1" to="258025929#2" departLane="best" type="veh_passenger"/>
    <trip id="veh158" depart="48.62" from="690187841#1" to="1414112453#0" departLane="best" type="veh_passenger"/>
    <trip id="veh159" depart="48.92" from="693656416#4" to="208472461#1" departLane="best" type="veh_passenger"/>
    <trip id="veh160" depart="49.23" from="-236481182" to="693651826#3" departLane="best" type="veh_passenger"/>
    <trip id="veh161" depart="49.54" from="-911218567#0" to="751465279" departLane="best" type="veh_passenger"/>
    <trip id="veh162" depart="49.85" from="1447089503" to="1300898059#3" departLane="best" type="veh_passenger"/>
    <trip id="veh163" depart="50.16" from="1423481109#0" to="1232988763#2" departLane="best" type="veh_passenger"/>
    <trip id="veh164" depart="50.46" from="-1412113036#9" to="-1334817307#2" departLane="best" type="veh_passenger"/>
    <trip id="veh165" depart="50.77" from="-1422516696" to="691218158#0" departLane="best" type="veh_passenger"/>
    <trip id="veh166" depart="51.08" from="1185198486#5" to="-1222882871#5" departLane="best" type="veh_passenger"/>
    <trip id="veh167" depart="51.39" from="1276125093" to="234259112" departLane="best" type="veh_passenger"/>
    <trip id="veh168" depart="51.69" from="228767959#3" to="693651833#7" departLane="best" type="veh_passenger"/>
    <trip id="veh169" depart="52.00" from="1185785532#4" to="912357111#1" departLane="best" type="veh_passenger"/>
    <trip id="veh170" depart="52.31" from="-1222741574#0" to="-24041344#15" departLane="best" type="veh_passenger"/>
    <trip id="veh171" depart="52.62" from="1409740303#1" to="23650459#3" departLane="best" type="veh_passenger"/>
    <trip id="veh172" depart="52.92" from="1320158847#1" to="401358083#4" departLane="best" type="veh_passenger"/>
    <trip id="veh173" depart="53.23" from="1236756366" to="23534970#1" departLane="best" type="veh_passenger"/>
    <trip id="veh174" depart="53.54" from="-611632070#6" to="-288039682#7" departLane="best" type="veh_passenger" departSpeed="max"/>
    <trip id="veh175" depart="53.85" from="232715402#1" to="1388681523#2" departLane="best" type="veh_passenger"/>
    <trip id="veh176" depart="54.16" from="925184025" to="911230140#0" departLane="best" type="veh_passenger" departSpeed="max"/>
    <trip id="veh177" depart="54.46" from="-911222968#7" to="-1320158817#1" departLane="best" type="veh_passenger"/>
    <trip id="veh178" depart="54.77" from="-26642644#5" to="1342321804#4" departLane="best" type="veh_passenger"/>
    <trip id="veh179" depart="55.08" from="1321447078#3" to="1342321804#3" departLane="best" type="veh_passenger"/>
    <trip id="veh180" depart="55.39" from="-1423481107#0" to="-912359483#0" departLane="best" type="veh_passenger"/>
    <trip id="veh181" depart="55.69" from="1300898059#4" to="339883507#2" departLane="best" type="veh_passenger"/>
    <trip id="veh182" depart="56.00" from="-208136405#1" to="233432897#2" departLane="best" type="veh_passenger"/>
    <trip id="veh183" depart="56.31" from="1222882863#1" to="385200736#1" departLane="best" type="veh_passenger"/>
    <trip id="veh184" depart="56.62" from="24039803#1" to="-314480719#1" departLane="best" type="veh_passenger"/>
    <trip id="veh185" depart="56.92" from="257692772#2" to="1222882870#1" departLane="best" type="veh_passenger"/>
    <trip id="veh186" depart="57.23" from="496426080#0" to="-1222882867" departLane="best" type="veh_passenger" departSpeed="max"/>
    <trip id="veh187" depart="57.54" from="-912359483#1" to="1427251617#3" departLane="best" type="veh_passenger"/>
    <trip id="veh188" depart="57.85" from="-88497026#3" to="1279020894#1" departLane="best" type="veh_passenger" departSpeed="max"/>
    <trip id="veh189" depart="58.16" from="208136417#8" to="-544489408#0" departLane="best" type="veh_passenger"/>
    <trip id="veh190" depart="58.46" from="615947439#0" to="-911108694#0" departLane="best" type="veh_passenger"/>
    <trip id="veh191" depart="58.77" from="24041351#2" to="912363097#1" departLane="best" type="veh_passenger"/>
    <trip id="veh192" depart="59.08" from="-1449304890#12" to="690355170#3-AddedOnRampEdge" departLane="best" type="veh_passenger"/>
    <trip id="veh193" depart="59.39" from="-208493036#6" to="785750009#1" departLane="best" type="veh_passenger"/>
    <trip id="veh194" depart="59.69" from="-911230140#0" to="1425819462" departLane="best" type="veh_passenger"/>
    <trip id="veh195" depart="60.00" from="912374364#6" to="-24011166#8" departLane="best" type="veh_passenger"/>
    <trip id="veh196" depart="60.31" from="-1413624406" to="257692772#3" departLane="best" type="veh_passenger"/>
    <trip id="veh197" depart="60.62" from="-1334817307#1" to="-216728662#0" departLane="best" type="veh_passenger"/>
    <trip id="veh198" depart="60.92" from="-605261126#3" to="-1211482741#2" departLane="best" type="veh_passenger"/>
    <trip id="veh199" depart="61.23" from="1155278555#1" to="-1355096267#1" departLane="best" type="veh_passenger"/>
    <trip id="veh200" depart="61.54" from="87741571#1" to="1424832066#3" departLane="best" type="veh_passenger"/>
    <trip id="veh201" depart="61.85" from="-1292156358#4" to="31541469#11" departLane="best" type="veh_passenger"/>
    <trip id="veh202" depart="62.16" from="-498572667" to="690355194#3" departLane="best" type="veh_passenger" departSpeed="max"/>
    <trip id="veh203" depart="62.46" from="-1320158849#0" to="-208514994#1" departLane="best" type="veh_passenger"/>
    <trip id="veh204" depart="62.77" from="1222741573" to="48795302" departLane="best" type="veh_passenger"/>
    <trip id="veh205" depart="63.08" from="88496051#3" to="912368454#1" departLane="best" type="veh_passenger"/>
    <trip id="veh206" depart="63.39" from="-346001019#2" to="1232988763#2" departLane="best" type="veh_passenger" departSpeed="max"/>
    <trip id="veh207" depart="63.69" from="605261126#0" to="485180901#5" departLane="best" type="veh_passenger" departSpeed="max"/>
    <trip id="veh208" depart="64.00" from="911113150#1" to="-1416109091" departLane="best" type="veh_passenger"/>
    <trip id="veh209" depart="64.31" from="-1320158852#1" to="1312808647#11" departLane="best" type="veh_passenger"/>
    <trip id="veh210" depart="64.62" from="53276944#1" to="255775042#8" departLane="best" type="veh_passenger"/>
    <trip id="veh211" depart="64.92" from="1312808648#4" to="247610443#1" departLane="best" type="veh_passenger"/>
    <trip id="veh212" depart="65.23" from="1342321804#3" to="525676667#0" departLane="best" type="veh_passenger"/>
    <trip id="veh213" depart="65.54" from="-702593086#2" to="334057433#0" departLane="best" type="veh_passenger"/>
    <trip id="veh214" depart="65.85" from="-24024777#14" to="208518325#5" departLane="best" type="veh_passenger"/>
    <trip id="veh215" depart="66.16" from="-912359483#0" to="1185785532#4" departLane="best" type="veh_passenger"/>
    <trip id="veh216" depart="66.46" from="-690187864#7" to="-1312808648#2" departLane="best" type="veh_passenger"/>
    <trip id="veh217" depart="66.77" from="-1433804585#1" to="24040599#6" departLane="best" type="veh_passenger"/>
    <trip id="veh218" depart="67.08" from="1334817300#2" to="208518325#9" departLane="best" type="veh_passenger"/>
    <trip id="veh219" depart="67.39" from="40755923#5" to="920731516#6" departLane="best" type="veh_passenger"/>
    <trip id="veh220" depart="67.69" from="1239813219#0" to="31510683#4" departLane="best" type="veh_passenger"/>
    <trip id="veh221" depart="68.00" from="460408961#2" to="548024820#0" departLane="best" type="veh_passenger"/>
    <trip id="veh222" depart="68.31" from="23979404#8" to="-510754407#2" departLane="best" type="veh_passenger"/>
    <trip id="veh223" depart="68.62" from="466839422#2" to="202361495#6" departLane="best" type="veh_passenger"/>
    <trip id="veh224" depart="68.92" from="27108752#4" to="313445159" departLane="best" type="veh_passenger"/>
    <trip id="veh225" depart="69.23" from="-349962357#3" to="-1409740304#2" departLane="best" type="veh_passenger"/>
    <trip id="veh226" depart="69.54" from="385200734#9" to="24024777#8" departLane="best" type="veh_passenger"/>
    <trip id="veh227" depart="69.85" from="-1222741589#0" to="-1334817307#3" departLane="best" type="veh_passenger"/>
    <trip id="veh228" depart="70.16" from="-208514990#2" to="257692772#3" departLane="best" type="veh_passenger"/>
    <trip id="veh229" depart="70.46" from="1155426004#2" to="23650459#8" departLane="best" type="veh_passenger"/>
    <trip id="veh230" depart="70.77" from="-691145129#18" to="-53278703#3" departLane="best" type="veh_passenger"/>
    <trip id="veh231" depart="71.08" from="-23979402#2" to="255770433#1" departLane="best" type="veh_passenger"/>
    <trip id="veh232" depart="71.39" from="228168651#9" to="-1409740301#0" departLane="best" type="veh_passenger"/>
    <trip id="veh233" depart="71.69" from="-202361495#2" to="527979094#2" departLane="best" type="veh_passenger"/>
    <trip id="veh234" depart="72.00" from="-655430041#3" to="785750009#5" departLane="best" type="veh_passenger"/>
    <trip id="veh235" depart="72.31" from="920675375#12" to="467058778#8" departLane="best" type="veh_passenger"/>
    <trip id="veh236" depart="72.62" from="-232715402#2" to="-1450165110" departLane="best" type="veh_passenger"/>
    <trip id="veh237" depart="72.92" from="487759852#9" to="1326103718" departLane="best" type="veh_passenger"/>
    <trip id="veh238" depart="73.23" from="-1312808648#0" to="-154454106#1" departLane="best" type="veh_passenger"/>
    <trip id="veh239" depart="73.54" from="-693651826#3" to="-619425211#2" departLane="best" type="veh_passenger"/>
    <trip id="veh240" depart="73.85" from="-1320158851#2" to="26642648#7" departLane="best" type="veh_passenger"/>
    <trip id="veh241" depart="74.16" from="-1356123647#2" to="-911116137" departLane="best" type="veh_passenger"/>
    <trip id="veh242" depart="74.46" from="255773556" to="31541469#7" departLane="best" type="veh_passenger"/>
    <trip id="veh243" depart="74.77" from="401358083#6" to="-539985277#0" departLane="best" type="veh_passenger"/>
    <trip id="veh244" depart="75.08" from="-257724387#8" to="228767496#1" departLane="best" type="veh_passenger"/>
    <trip id="veh245" depart="75.39" from="42682320#0" to="30811921#1" departLane="best" type="veh_passenger"/>
    <trip id="veh246" depart="75.69" from="27108752#0" to="1321447078#5" departLane="best" type="veh_passenger"/>
    <trip id="veh247" depart="76.00" from="258025929#1" to="693651827#2" departLane="best" type="veh_passenger"/>