<?xml version="1.0" encoding="UTF-8"?>

<!-- generated on 2025-11-22 00:21:26.345925 by osmWebWizard.py v1_24_0+0000-b72eb3fabc8
<configuration>
    <net-file value="/home/yarl/Desktop/sumo/tools/2025-11-22-00-20-46/osm.net.xml.gz"/>
    <output-trip-file value="/home/yarl/Desktop/sumo/tools/2025-11-22-00-20-46/osm.motorcycle.trips.xml"/>
    <route-file value="/home/yarl/Desktop/sumo/tools/2025-11-22-00-20-46/osm.motorcycle.rou.xml"/>
    <prefix value="motorcycle"/>
    <trip-attributes value="departLane=&quot;best&quot;"/>
    <fringe-start-attributes value="departSpeed=&quot;max&quot;"/>
    <vehicle-class value="motorcycle"/>
    <fringe-factor value="2"/>
    <edge-permission value="motorcycle"/>
    <via-edge-types value="highway.motorway,highway.motorway_link,highway.trunk_link,highway.primary_link,highway.secondary_link,highway.tertiary_link"/>
    <seed value="43"/>
    <max-distance value="1200.0"/>
    <remove-loops value="True"/>
    <insertion-density value="1.0"/>
</configuration>
-->

<routes xmlns:xsi="http://www.w3.org/2001/XMLSchema-instance" xsi:noNamespaceSchemaLocation="http://sumo.dlr.de/xsd/routes_file.xsd">
    <vType id="motorcycle_motorcycle" vClass="motorcycle"/>
    <trip id="motorcycle0" depart="0.00" from="50878504#2" to="40755936#2" departLane="best" type="motorcycle_motorcycle"/>
    <trip id="motorcycle1" depart="7.28" from="-920729948#2" to="-1433199431#2" departLane="best" type="motorcycle_motorcycle"/>
    <trip id="motorcycle2" depart="14.55" from="1222741590#8" to="-1224005428" departLane="best" type="motorcycle_motorcycle"/>
    <trip id="motorcycle3" depart="21.83" from="912368453#1" to="-208514994#0" departLane="best" type="motorcycle_motorcycle"/>
    <trip id="motorcycle4" depart="29.10" from="527979094#0" to="1103848385#1" departLane="best" type="motorcycle_motorcycle"/>
    <trip id="motorcycle5" depart="36.38" from="-26642644#8" to="693651833#9" departLane="best" type="motorcycle_motorcycle"/>
    <trip id="motorcycle6" depart="43.65" from="53278703#1" to="785750009#1" departLane="best" type="motorcycle_motorcycle"/>
    <trip id="motorcycle7" depart="50.93" from="26540252#1" to="1412113036#4" departLane="best" type="motorcycle_motorcycle"/>
    <trip id="motorcycle8" depart="58.20" from="1279020894#5" to="-605261126#11" departLane="best" type="motorcycle_motorcycle"/>
    <trip id="motorcycle9" depart="65.48" from="-314480719#0" to="208514990#3" departLane="best" type="motorcycle_motorcycle"/>
    <trip id="motorcycle10" depart="72.75" from="-24041344#14" to="-38566695#1" departLane="best" type="motorcycle_motorcycle"/>
    <trip id="motorcycle11" depart="80.03" from="1222741585" to="1300897071#7" departLane="best" type="motorcycle_motorcycle"/>
    <trip id="motorcycle12" depart="87.30" from="-691215052#0" to="-1272645241" departLane="best" type="motorcycle_motorcycle"/>
    <trip id="motorcycle13" depart="94.58" from="-690187867#2" to="380361483#1" departLane="best" type="motorcycle_motorcycle"/>
    <trip id="motorcycle14" depart="101.85" from="432527725" to="1355096268#1" departLane="best" type="motorcycle_motorcycle"/>
    <trip id="motorcycle15" depart="109.13" from="189199969#7" to="295089210#1" departLane="best" type="motorcycle_motorcycle"/>
    <trip id="motorcycle16" depart="116.40" from="-1414763099#6" to="-1155426003#1" departLane="best" type="motorcycle_motorcycle"/>
    <trip id="motorcycle17" depart="123.68" from="24024777#11" to="-26642644#3" departLane="best" type="motorcycle_motorcycle"/>
    <trip id="motorcycle18" depart="130.96" from="23477160#26" to="-660403192" departLane="best" type="motorcycle_motorcycle"/>
    <trip id="motorcycle19" depart="138.23" from="-40941250#9" to="-690355194#3" departLane="best" type="motorcycle_motorcycle"/>
    <trip id="motorcycle20" depart="145.51" from="690187864#8" to="1224005429#1" departLane="best" type="motorcycle_motorcycle"/>
    <trip id="motorcycle21" depart="152.78" from="-245293583#1" to="-88497549#1" departLane="best" type="motorcycle_motorcycle"/>
    <trip id="motorcycle22" depart="160.06" from="-1344954156" to="257692770#1" departLane="best" type="motorcycle_motorcycle"/>
    <trip id="motorcycle23" depart="167.33" from="-1222741598#0" to="37370130#4" departLane="best" type="motorcycle_motorcycle"/>
    <trip id="motorcycle24" depart="174.61" from="466839422#3" to="245293583#1" departLane="best" type="motorcycle_motorcycle"/>
    <trip id="motorcycle25" depart="181.88" from="-690187862#5" to="1370006053#0" departLane="best" type="motorcycle_motorcycle"/>
    <trip id="motorcycle26" depart="189.16" from="-26642650#8" to="-1155278555#1" departLane="best" type="motorcycle_motorcycle"/>
    <trip id="motorcycle27" depart="196.43" from="171895222#1" to="691145136#0" departLane="best" type="motorcycle_motorcycle"/>
    <trip id="motorcycle28" depart="203.71" from="375991982#1" to="38566684#0" departLane="best" type="motorcycle_motorcycle"/>
    <trip id="motorcycle29" depart="210.98" from="467058778#11" to="24024777#1" departLane="best" type="motorcycle_motorcycle"/>
    <trip id="motorcycle30" depart="218.26" from="1222741583#11" to="-690187867#3" departLane="best" type="motorcycle_motorcycle"/>
    <trip id="motorcycle31" depart="225.53" from="1185785532#3" to="175953577#3" departLane="best" type="motorcycle_motorcycle"/>
    <trip id="motorcycle32" depart="232.81" from="26993007#5" to="-1222741589#3" departLane="best" type="motorcycle_motorcycle"/>
    <trip id="motorcycle33" depart="240.08" from="23979404#31" to="1449304890#5" departLane="best" type="motorcycle_motorcycle"/>
    <trip id="motorcycle34" depart="247.36" from="23477153#5" to="1224005429#1" departLane="best" type="motorcycle_motorcycle"/>
    <trip id="motorcycle35" depart="254.63" from="23979404#26" to="-50878504#1" departLane="best" type="motorcycle_motorcycle"/>
    <trip id="motorcycle36" depart="261.91" from="208907445#8" to="911229691#3" departLane="best" type="motorcycle_motorcycle"/>
    <trip id="motorcycle37" depart="269.19" from="1181015833#0" to="53278703#10" departLane="best" type="motorcycle_motorcycle"/>
    <trip id="motorcycle38" depart="276.46" from="-253295665#1" to="414781322#11" departLane="best" type="motorcycle_motorcycle" departSpeed="max"/>
    <trip id="motorcycle39" depart="283.74" from="1124255387#2" to="445143939#0" departLane="best" type="motorcycle_motorcycle"/>
    <trip id="motorcycle40" depart="291.01" from="208493039#24" to="27083101#5" departLane="best" type="motorcycle_motorcycle"/>
    <trip id="motorcycle41" depart="298.29" from="26642646#1" to="385200732#9" departLane="best" type="motorcycle_motorcycle"/>
    <trip id="motorcycle42" depart="305.56" from="26642645#0" to="26642644#22" departLane="best" type="motorcycle_motorcycle"/>
    <trip id="motorcycle43" depart="312.84" from="207895701#7" to="1408203413#3" departLane="best" type="motorcycle_motorcycle"/>
    <trip id="motorcycle44" depart="320.11" from="-1214954363" to="-51969610#1" departLane="best" type="motorcycle_motorcycle"/>
    <trip id="motorcycle45" depart="327.39" from="208907445#7" to="257724952#3" departLane="best" type="motorcycle_motorcycle"/>
    <trip id="motorcycle46" depart="334.66" from="-527979094#3" to="1409740312" departLane="best" type="motorcycle_motorcycle"/>
    <trip id="motorcycle47" depart="341.94" from="466850669#3" to="26642650#1" departLane="best" type="motorcycle_motorcycle"/>
    <trip id="motorcycle48" depart="349.21" from="-539985282#1" to="912368453#5" departLane="best" type="motorcycle_motorcycle"/>
    <trip id="motorcycle49" depart="356.49" from="-1222741583#6" to="-1156650711#0" departLane="best" type="motorcycle_motorcycle"/>
    <trip id="motorcycle50" depart="363.76" from="1414763094#0" to="27108754#1" departLane="best" type="motorcycle_motorcycle"/>
    <trip id="motorcycle51" depart="371.04" from="911115666#6" to="-53279867#2" departLane="best" type="motorcycle_motorcycle"/>
    <trip id="motorcycle52" depart="378.31" from="-691145129#17" to="-1420130624#0" departLane="best" type="motorcycle_motorcycle"/>
    <trip id="motorcycle53" depart="385.59" from="385200732#2" to="487759852#4" departLane="best" type="motorcycle_motorcycle"/>
    <trip id="motorcycle54" depart="392.87" from="24041344#6" to="692910546#4" departLane="best" type="motorcycle_motorcycle"/>
    <trip id="motorcycle55" depart="400.14" from="920729948#2" to="487759852#13" departLane="best" type="motorcycle_motorcycle"/>
    <trip id="motorcycle56" depart="407.42" from="-210720209#1" to="202361495#2" departLane="best" type="motorcycle_motorcycle" departSpeed="max"/>
    <trip id="motorcycle57" depart="414.69" from="40755936#11" to="-1187506598#0" departLane="best" type="motorcycle_motorcycle"/>
    <trip id="motorcycle58" depart="421.97" from="1334817307#2" to="680224749#0" departLane="best" type="motorcycle_motorcycle"/>
    <trip id="motorcycle59" depart="429.24" from="-26642644#16" to="1222882863#6" departLane="best" type="motorcycle_motorcycle"/>
    <trip id="motorcycle60" depart="436.52" from="-30992562#0" to="154454106#1" departLane="best" type="motorcycle_motorcycle"/>
    <trip id="motorcycle61" depart="443.79" from="692514203#2" to="1410047962" departLane="best" type="motorcycle_motorcycle"/>
    <trip id="motorcycle62" depart="451.07" from="23979404#29" to="245951650#0" departLane="best" type="motorcycle_motorcycle"/>
    <trip id="motorcycle63" depart="458.34" from="27007143" to="414781322#14" departLane="best" type="motorcycle_motorcycle"/>
    <trip id="motorcycle64" depart="465.62" from="-88496051#4" to="-292510790#0" departLane="best" type="motorcycle_motorcycle"/>
    <trip id="motorcycle65" depart="472.89" from="-1123881600#1" to="-1396148980#1" departLane="best" type="motorcycle_motorcycle"/>
    <trip id="motorcycle66" depart="480.17" from="-258025940#2" to="911229691#6" departLane="best" type="motorcycle_motorcycle"/>
    <trip id="motorcycle67" depart="487.44" from="-1320158851#4" to="23649211#9" departLane="best" type="motorcycle_motorcycle"/>
    <trip id="motorcycle68" depart="494.72" from="24024777#2" to="24041344#16" departLane="best" type="motorcycle_motorcycle"/>
    <trip id="motorcycle69" depart="501.99" from="-690187862#3" to="1334817302#1" departLane="best" type="motorcycle_motorcycle"/>
    <trip id="motorcycle70" depart="509.27" from="-605261126#23" to="1113522074#0" departLane="best" type="motorcycle_motorcycle"/>
    <trip id="motorcycle71" depart="516.55" from="38566870#0" to="-26642650#2" departLane="best" type="motorcycle_motorcycle"/>
    <trip id="motorcycle72" depart="523.82" from="1087070296#0" to="27280013#0" departLane="best" type="motorcycle_motorcycle"/>
    <trip id="motorcycle73" depart="531.10" from="-1414763098#5" to="539985272#0" departLane="best" type="motorcycle_motorcycle"/>
    <trip id="motorcycle74" depart="538.37" from="27109231#2" to="1450165105#0" departLane="best" type="motorcycle_motorcycle"/>
    <trip id="motorcycle75" depart="545.65" from="124482977#0" to="171898837#0" departLane="best" type="motorcycle_motorcycle"/>
    <trip id="motorcycle76" depart="552.92" from="26642646#4" to="1222882864" departLane="best" type="motorcycle_motorcycle"/>
    <trip id="motorcycle77" depart="560.20" from="-73053361#0" to="26902000#25" departLane="best" type="motorcycle_motorcycle"/>
    <trip id="motorcycle78" depart="567.47" from="1222882869#0" to="24041886" departLane="best" type="motorcycle_motorcycle"/>
    <trip id="motorcycle79" depart="574.75" from="232389026#1" to="1188022941#0" departLane="best" type="motorcycle_motorcycle"/>
    <trip id="motorcycle80" depart="582.02" from="24024772#12" to="-288039682#11" departLane="best" type="motorcycle_motorcycle"/>
    <trip id="motorcycle81" depart="589.30" from="24024777#2" to="27083101#5" departLane="best" type="motorcycle_motorcycle"/>
    <trip id="motorcycle82" depart="596.57" from="1305575502#1" to="-605261126#20" departLane="best" type="motorcycle_motorcycle"/>
    <trip id="motorcycle83" depart="603.85" from="414399964#3" to="-697105514" departLane="best" type="motorcycle_motorcycle"/>
    <trip id="motorcycle84" depart="611.12" from="53276944#0" to="-53278703#12" departLane="best" type="motorcycle_motorcycle"/>
    <trip id="motorcycle85" depart="618.40" from="42650756#2" to="-202361495#5" departLane="best" type="motorcycle_motorcycle"/>
    <trip id="motorcycle86" depart="625.67" from="23979404#20" to="208493035#1" departLane="best" type="motorcycle_motorcycle"/>
    <trip id="motorcycle87" depart="632.95" from="1115957145#1" to="23477154#4" departLane="best" type="motorcycle_motorcycle"/>
    <trip id="motorcycle88" depart="640.22" from="-189199969#4" to="-53275456#4" departLane="best" type="motorcycle_motorcycle"/>
    <trip id="motorcycle89" depart="647.50" from="-27108752#2" to="544059267#2" departLane="best" type="motorcycle_motorcycle"/>
    <trip id="motorcycle90" depart="654.78" from="1414763098#5" to="30992562#7" departLane="best" type="motorcycle_motorcycle"/>
    <trip id="motorcycle91" depart="662.05" from="1106620871" to="692514203#0" departLane="best" type="motorcycle_motorcycle"/>
    <trip id="motorcycle92" depart="669.33" from="-539985282#1" to="-1409697568#2" departLane="best" type="motorcycle_motorcycle"/>
    <trip id="motorcycle93" depart="676.60" from="228168650#3" to="1222741590#4" departLane="best" type="motorcycle_motorcycle"/>
    <trip id="motorcycle94" depart="683.88" from="702593086#10" to="171895227" departLane="best" type="motorcycle_motorcycle"/>
    <trip id="motorcycle95" depart="691.15" from="1422516723#2" to="334057432#1" departLane="best" type="motorcycle_motorcycle"/>
    <trip id="motorcycle96" depart="698.43" from="186752465#6" to="690187862#6" departLane="best" type="motorcycle_motorcycle"/>
    <trip id="motorcycle97" depart="705.70" from="228167146#2" to="24024772#12" departLane="best" type="motorcycle_motorcycle"/>
    <trip id="motorcycle98" depart="712.98" from="-27085128#4" to="-353278598#1" departLane="best" type="motorcycle_motorcycle"/>
    <trip id="motorcycle99" depart="720.25" from="466839422#5" to="24011166#0" departLane="best" type="motorcycle_motorcycle"/>
    <trip id="motorcycle100" depart="727.53" from="920675375#2" to="1408203413#6" departLane="best" type="motorcycle_motorcycle"/>
    <trip id="motorcycle101" depart="734.80" from="-691145133#2" to="394695278#4" departLane="best" type="motorcycle_motorcycle"/>
    <trip id="motorcycle102" depart="742.08" from="189199969#7" to="1422516705" departLane="best" type="motorcycle_motorcycle"/>
    <trip id="motorcycle103" depart="749.35" from="-24011166#1" to="-24040748#4" departLane="best" type="motorcycle_motorcycle"/>
    <trip id="motorcycle104" depart="756.63" from="487759852#29" to="692911407#2" departLane="best" type="motorcycle_motorcycle"/>
    <trip id="motorcycle105" depart="763.90" from="1124080588#0" to="1424832064#5" departLane="best" type="motorcycle_motorcycle"/>
    <trip id="motorcycle106" depart="771.18" from="-38566693#2" to="925193172#6" departLane="best" type="motorcycle_motorcycle"/>
    <trip id="motorcycle107" depart="778.46" from="23979404#25" to="690355196#3" departLane="best" type="motorcycle_motorcycle"/>
    <trip id="motorcycle108" depart="785.73" from="1165287687#2" to="-1361117795#3" departLane="best" type="motorcycle_motorcycle"/>
    <trip id="motorcycle109" depart="793.01" from="-245951650#3" to="-1414763098#0" departLane="best" type="motorcycle_motorcycle"/>
    <trip id="motorcycle110" depart="800.28" from="1450165106#5" to="1342321806" departLane="best" type="motorcycle_motorcycle"/>
    <trip id="motorcycle111" depart="807.56" from="257692765#2" to="-1344954156" departLane="best" type="motorcycle_motorcycle"/>
    <trip id="motorcycle112" depart="814.83" from="24039820#3" to="-1409740332" departLane="best" type="motorcycle_motorcycle"/>
    <trip id="motorcycle113" depart="822.11" from="-925193172#1" to="-1222741583#2" departLane="best" type="motorcycle_motorcycle"/>
    <trip id="motorcycle114" depart="829.38" from="154454128#3" to="208907445#6" departLane="best" type="motorcycle_motorcycle"/>
    <trip id="motorcycle115" depart="836.66" from="1334817310#2" to="24041003#8" departLane="best" type="motorcycle_motorcycle"/>
    <trip id="motorcycle116" depart="843.93" from="838515695#2" to="-414781322#20" departLane="best" type="motorcycle_motorcycle"/>
    <trip id="motorcycle117" depart="851.21" from="1424832064#9" to="202361495#5" departLane="best" type="motorcycle_motorcycle"/>
    <trip id="motorcycle118" depart="858.48" from="-605261126#16" to="1222882860#1" departLane="best" type="motorcycle_motorcycle"/>
    <trip id="motorcycle119" depart="865.76" from="-490727027#1" to="30992562#3" departLane="best" type="motorcycle_motorcycle"/>
    <trip id="motorcycle120" depart="873.03" from="-216728662#0" to="23979404#28" departLane="best" type="motorcycle_motorcycle"/>
    <trip id="motorcycle121" depart="880.31" from="-1423481107#5" to="-288039682#4" departLane="best" type="motorcycle_motorcycle"/>
    <trip id="motorcycle122" depart="887.58" from="925185053" to="-22576030#5" departLane="best" type="motorcycle_motorcycle"/>
    <trip id="motorcycle123" depart="894.86" from="-23979402#8" to="-24039803#2" departLane="best" type="motorcycle_motorcycle"/>
    <trip id="motorcycle124" depart="902.13" from="-23535107#1" to="-1185785539#0" departLane="best" type="motorcycle_motorcycle"/>
    <trip id="motorcycle125" depart="909.41" from="1409740308#0" to="-1409740305#0" departLane="best" type="motorcycle_motorcycle"/>
    <trip id="motorcycle126" depart="916.69" from="24041356#0" to="1334817299#1" departLane="best" type="motorcycle_motorcycle"/>
    <trip id="motorcycle127" depart="923.96" from="38566870#5" to="-26642650#6" departLane="best" type="motorcycle_motorcycle"/>
    <trip id="motorcycle128" depart="931.24" from="-401358083#15" to="208518329#1" departLane="best" type="motorcycle_motorcycle"/>
    <trip id="motorcycle129" depart="938.51" from="-1427251650#3" to="-208493036#4" departLane="best" type="motorcycle_motorcycle"/>
    <trip id="motorcycle130" depart="945.79" from="691145129#19" to="911115666#6" departLane="best" type="motorcycle_motorcycle"/>
    <trip id="motorcycle131" depart="953.06" from="-1292156358#0" to="-245951650#0" departLane="best" type="motorcycle_motorcycle"/>
    <trip id="motorcycle132" depart="960.34" from="-23994018#2" to="-685519837#0" departLane="best" type="motorcycle_motorcycle"/>
    <trip id="motorcycle133" depart="967.61" from="23477160#26" to="928099277#2" departLane="best" type="motorcycle_motorcycle"/>
    <trip id="motorcycle134" depart="974.89" from="171895222#1" to="-691145133#1" departLane="best" type="motorcycle_motorcycle"/>
    <trip id="motorcycle135" depart="982.16" from="-1447621300#0" to="154454106#0" departLane="best" type="motorcycle_motorcycle"/>
    <trip id="motorcycle136" depart="989.44" from="1413624406" to="-24041344#3" departLane="best" type="motorcycle_motorcycle"/>
    <trip id="motorcycle137" depart="996.71" from="24011166#1" to="24011166#7" departLane="best" type="motorcycle_motorcycle"/>
    <trip id="motorcycle138" depart="1003.99" from="-1222882871#6" to="40941250#14" departLane="best" type="motorcycle_motorcycle"/>
    <trip id="motorcycle139" depart="1011.26" from="-1155426003#1" to="1347340104#1" departLane="best" type="motorcycle_motorcycle"/>
    <trip id="motorcycle140" depart="1018.54" from="-1334817299#2" to="1370006053#4" departLane="best" type="motorcycle_motorcycle"/>
    <trip id="motorcycle141" depart="1025.81" from="1193893938#0" to="26902000#19" departLane="best" type="motorcycle_motorcycle"/>
    <trip id="motorcycle142" depart="1033.09" from="691143808#5" to="-911116137" departLane="best" type="motorcycle_motorcycle"/>
    <trip id="motorcycle143" depart="1040.37" from="1279020894#5" to="-928099276#16" departLane="best" type="motorcycle_motorcycle"/>
    <trip id="motorcycle144" depart="1047.64" from="154454128#6" to="675942651#0" departLane="best" type="motorcycle_motorcycle"/>
    <trip id="motorcycle145" depart="1054.92" from="-23477160#1" to="-275457458" departLane="best" type="motorcycle_motorcycle"/>
    <trip id="motorcycle146" depart="1062.19" from="-26642644#23" to="-466850669#1" departLane="best" type="motorcycle_motorcycle"/>
    <trip id="motorcycle147" depart="1069.47" from="1432213597#0" to="1239813218#0" departLane="best" type="motorcycle_motorcycle"/>
    <trip id="motorcycle148" depart="1076.74" from="-1409697563#0" to="334057433#3" departLane="best" type="motorcycle_motorcycle"/>
    <trip id="motorcycle149" depart="1084.02" from="26642644#8" to="26642644#3" departLane="best" type="motorcycle_motorcycle"/>
    <trip id="motorcycle150" depart="1091.29" from="-88497548#5" to="1222741583#13" departLane="best" type="motorcycle_motorcycle"/>
    <trip id="motorcycle151" depart="1098.57" from="98572426#0" to="-697105510#1" departLane="best" type="motorcycle_motorcycle"/>
    <trip id="motorcycle152" depart="1105.84" from="-341869005" to="-288039682#4" departLane="best" type="motorcycle_motorcycle" departSpeed="max"/>
    <trip id="motorcycle153" depart="1113.12" from="208472460#3" to="222570183#2" departLane="best" type="motorcycle_motorcycle"/>
    <trip id="motorcycle154" depart="1120.39" from="23477162#8" to="-23477153#4" departLane="best" type="motorcycle_motorcycle"/>
    <trip id="motorcycle155" depart="1127.67" from="690187862#5" to="23650459#9" departLane="best" type="motorcycle_motorcycle"/>
    <trip id="motorcycle156" depart="1134.94" from="-1409740300#0" to="1235109779#1" departLane="best" type="motorcycle_motorcycle"/>
    <trip id="motorcycle157" depart="1142.22" from="-1414763098#1" to="-23979402#2" departLane="best" type="motorcycle_motorcycle"/>
    <trip id="motorcycle158" depart="1149.49" from="-1320158817#0" to="228767495#4" departLane="best" type="motorcycle_motorcycle"/>
    <trip id="motorcycle159" depart="1156.77" from="-912359483#0" to="-912357111#1" departLane="best" type="motorcycle_motorcycle"/>
    <trip id="motorcycle160" depart="1164.05" from="-1427251646#1" to="-26642644#10" departLane="best" type="motorcycle_motorcycle"/>
    <trip id="motorcycle161" depart="1171.32" from="-288039682#8" to="22576030#3" departLane="best" type="motorcycle_motorcycle"/>
    <trip id="motorcycle162" depart="1178.60" from="24039739#0" to="208514995#2" departLane="best" type="motorcycle_motorcycle"/>
    <trip id="motorcycle163" depart="1185.87" from="245293583#0" to="-401358083#2" departLane="best" type="motorcycle_motorcycle"/>
    <trip id="motorcycle164" depart="1193.15" from="-27108754#3" to="-23535107#18" departLane="best" type="motorcycle_motorcycle"/>
    <trip id="motorcycle165" depart="1200.42" from="467058778#12" to="-1222882860#3" departLane="best" type="motorcycle_motorcycle"/>
    <trip id="motorcycle166" depart="1207.70" from="-1411061987#2" to="201526388#0" departLane="best" type="motorcycle_motorcycle"/>
    <trip id="motorcycle167" depart="1214.97" from="-31541469#7" to="638667788#5" departLane="best" type="motorcycle_motorcycle"/>
    <trip id="motorcycle168" depart="1222.25" from="-697666545#2" to="-1414763098#4" departLane="best" type="motorcycle_motorcycle"/>
    <trip id="motorcycle169" depart="1229.52" from="1428337346#0" to="-691215051#2" departLane="best" type="motorcycle_motorcycle"/>
    <trip id="motorcycle170" depart="1236.80" from="-436865197#2" to="1085142672#3" departLane="best" type="motorcycle_motorcycle" departSpeed="max"/>
    <trip id="motorcycle171" depart="1244.07" from="-27280013#0" to="24040756#2" departLane="best" type="motorcycle_motorcycle"/>
    <trip id="motorcycle172" depart="1251.35" from="-339883509" to="-1436650661#1" departLane="best" type="motorcycle_motorcycle"/>
    <trip id="motorcycle173" depart="1258.62" from="23979404#8" to="-1320158834#1" departLane="best" type="motorcycle_motorcycle"/>
    <trip id="motorcycle174" depart="1265.90" from="533944576#1" to="911117955#0" departLane="best" type="motorcycle_motorcycle"/>
    <trip id="motorcycle175" depart="1273.17" from="-88497548#0" to="-1334817300#2" departLane="best" type="motorcycle_motorcycle"/>
    <trip id="motorcycle176" depart="1280.45" from="-1123614715" to="-275178402#2" departLane="best" type="motorcycle_motorcycle"/>
    <trip id="motorcycle177" depart="1287.72" from="1194203907" to="24024772#5" departLane="best" type="motorcycle_motorcycle"/>
    <trip id="motorcycle178" depart="1295.00" from="-1422516702" to="-1123881600#0" departLane="best" type="motorcycle_motorcycle"/>
    <trip id="motorcycle179" depart="1302.28" from="353278595#1" to="-525940936#0" departLane="best" type="motorcycle_motorcycle"/>
    <trip id="motorcycle180" depart="1309.55" from="27083101#0" to="-38566695#0" departLane="best" type="motorcycle_motorcycle"/>
    <trip id="motorcycle181" depart="1316.83" from="1300897072" to="690187845" departLane="best" type="motorcycle_motorcycle"/>
    <trip id="motorcycle182" depart="1324.10" from="-228167145" to="1087070300#2" departLane="best" type="motorcycle_motorcycle"/>
    <trip id="motorcycle183" depart="1331.38" from="24024382#1" to="-911221034" departLane="best" type="motorcycle_motorcycle"/>
    <trip id="motorcycle184" depart="1338.65" from="-1334817306#1" to="-38566693#4" departLane="best" type="motorcycle_motorcycle"/>
    <trip id="motorcycle185" depart="1345.93" from="384959688#1" to="693651825" departLane="best" type="motorcycle_motorcycle"/>
    <trip id="motorcycle186" depart="1353.20" from="691145131#10" to="-208907445#4" departLane="best" type="motorcycle_motorcycle"/>
    <trip id="motorcycle187" depart="1360.48" from="24024732#1" to="-1409740329" departLane="best" type="motorcycle_motorcycle"/>
    <trip id="motorcycle188" depart="1367.75" from="691145136#7" to="691145137#15" departLane="best" type="motorcycle_motorcycle"/>
    <trip id="motorcycle189" depart="1375.03" from="27083101#10" to="544059267#4" departLane="best" type="motorcycle_motorcycle"/>
    <trip id="motorcycle190" depart="1382.30" from="23979404#1" to="655430041#0" departLane="best" type="motorcycle_motorcycle"/>
    <trip id="motorcycle191" depart="1389.58" from="-1222741580#1" to="1320158851#3" departLane="best" type="motorcycle_motorcycle"/>
    <trip id="motorcycle192" depart="1396.85" from="1222741589#0" to="1388681523#1" departLane="best" type="motorcycle_motorcycle"/>
    <trip id="motorcycle193" depart="1404.13" from="-525940934#1" to="-690192473#1" departLane="best" type="motorcycle_motorcycle"/>
    <trip id="motorcycle194" depart="1411.40" from="23477160#20" to="23477154#3" departLane="best" type="motorcycle_motorcycle"/>
    <trip id="motorcycle195" depart="1418.68" from="-693651826#1" to="693651826#1" departLane="best" type="motorcycle_motorcycle"/>
    <trip id="motorcycle196" depart="1425.96" from="24011166#2" to="26902000#3" departLane="best" type="motorcycle_motorcycle"/>
    <trip id="motorcycle197" depart="1433.23" from="1422516695#0" to="-175953577#0" departLane="best" type="motorcycle_motorcycle"/>
    <trip id="motorcycle198" depart="1440.51" from="-287994386" to="928099276#2" departLane="best" type="motorcycle_motorcycle" departSpeed="max"/>
    <trip id="motorcycle199" depart="1447.78" from="30992562#6" to="-1355096267#1" departLane="best" type="motorcycle_motorcycle"/>
    <trip id="motorcycle200" depart="1455.06" from="1414763099#4" to="544059267#2" departLane="best" type="motorcycle_motorcycle"/>
    <trip id="motorcycle201" depart="1462.33" from="-1222882860#7" to="-1427251607#0" departLane="best" type="motorcycle_motorcycle"/>
    <trip id="motorcycle202" depart="1469.61" from="691145137#23" to="-1433199431#2" departLane="best" type="motorcycle_motorcycle"/>
    <trip id="motorcycle203" depart="1476.88" from="1427251649#3" to="-50878504#2" departLane="best" type="motorcycle_motorcycle"/>
    <trip id="motorcycle204" depart="1484.16" from="-1334817308" to="38566697" departLane="best" type="motorcycle_motorcycle"/>
    <trip id="motorcycle205" depart="1491.43" from="1207330012#1" to="-23994018#5" departLane="best" type="motorcycle_motorcycle"/>
    <trip id="motorcycle206" depart="1498.71" from="288039682#7" to="23477160#26" departLane="best" type="motorcycle_motorcycle"/>
    <trip id="motorcycle207" depart="1505.98" from="-26540248#1" to="258025929#2" departLane="best" type="motorcycle_motorcycle"/>
    <trip id="motorcycle208" depart="1513.26" from="912368453#13" to="23535107#15" departLane="best" type="motorcycle_motorcycle"/>
    <trip id="motorcycle209" depart="1520.53" from="1334817305#2" to="-690355197" departLane="best" type="motorcycle_motorcycle"/>
    <trip id="motorcycle210" depart="1527.81" from="690187841#2" to="-401358083#13" departLane="best" type="motorcycle_motorcycle"/>
    <trip id="motorcycle211" depart="1535.08" from="-691218156#6" to="1235109779#1" departLane="best" type="motorcycle_motorcycle"/>
    <trip id="motorcycle212" depart="1542.36" from="1427251617#2" to="24041003#6" departLane="best" type="motorcycle_motorcycle"/>
    <trip id="motorcycle213" depart="1549.64" from="-201526388#2" to="1084717829" departLane="best" type="motorcycle_motorcycle"/>
    <trip id="motorcycle214" depart="1556.91" from="-690187864#8" to="-23649211#2" departLane="best" type="motorcycle_motorcycle"/>
    <trip id="motorcycle215" depart="1564.19" from="691145129#6" to="691145131#3" departLane="best" type="motorcycle_motorcycle"/>
    <trip id="motorcycle216" depart="1571.46" from="911226159#0" to="785750009#5" departLane="best" type="motorcycle_motorcycle"/>
    <trip id="motorcycle217" depart="1578.74" from="175953577#4" to="912368453#12" departLane="best" type="motorcycle_motorcycle"/>
    <trip id="motorcycle218" depart="1586.01" from="-466839422#5" to="-245966329#0" departLane="best" type="motorcycle_motorcycle"/>