<?xml version="1.0" encoding="UTF-8"?>

<!-- generated on 2025-11-22 00:21:15.953241 by osmWebWizard.py v1_24_0+0000-b72eb3fabc8
<configuration>
    <net-file value="/home/yarl/Desktop/sumo/tools/2025-11-22-00-20-46/osm.net.xml.gz"/>
    <output-trip-file value="/home/yarl/Desktop/sumo/tools/2025-11-22-00-20-46/osm.bus.trips.xml"/>
    <route-file value="/home/yarl/Desktop/sumo/tools/2025-11-22-00-20-46/osm.bus.rou.xml"/>
    <prefix value="bus"/>
    <trip-attributes value="departLane=&quot;best&quot;"/>
    <fringe-start-attributes value="departSpeed=&quot;max&quot;"/>
    <vehicle-class value="bus"/>
    <fringe-factor value="5"/>
    <edge-permission value="bus"/>
    <via-edge-types value="highway.motorway,highway.motorway_link,highway.trunk_link,highway.primary_link,highway.secondary_link,highway.tertiary_link"/>
    <min-distance value="600.0"/>
    <min-distance.fringe value="10.0"/>
    <remove-loops value="True"/>
    <insertion-density value="10.0"/>
</configuration>
-->

<routes xmlns:xsi="http://www.w3.org/2001/XMLSchema-instance" xsi:noNamespaceSchemaLocation="http://sumo.dlr.de/xsd/routes_file.xsd">
    <vType id="bus_bus" vClass="bus"/>
    <trip id="bus0" depart="0.00" from="232472316#5" to="-1222741583#9" departLane="best" type="bus_bus"/>
    <trip id="bus1" depart="0.72" from="-401358083#14" to="-275457450#10" departLane="best" type="bus_bus"/>
    <trip id="bus2" depart="1.45" from="26642644#23" to="24039803#1" departLane="best" type="bus_bus"/>
    <trip id="bus3" depart="2.17" from="690187856#8" to="-1422516695#0" departLane="best" type="bus_bus"/>
    <trip id="bus4" depart="2.90" from="1155212166#4" to="-1222741596" departLane="best" type="bus_bus"/>
    <trip id="bus5" depart="3.62" from="-27083101#0" to="1408788638" departLane="best" type="bus_bus"/>
    <trip id="bus6" depart="4.35" from="-1222741590#2" to="-258487339#2" departLane="best" type="bus_bus"/>
    <trip id="bus7" depart="5.07" from="23477160#27" to="1428240097#0" departLane="best" type="bus_bus"/>
    <trip id="bus8" depart="5.80" from="-27085128#5" to="208514985#3" departLane="best" type="bus_bus"/>
    <trip id="bus9" depart="6.52" from="385204712#0" to="-1107026446#0" departLane="best" type="bus_bus" departSpeed="max"/>
    <trip id="bus10" depart="7.25" from="385200732#6" to="248218178#1" departLane="best" type="bus_bus"/>
    <trip id="bus11" depart="7.97" from="-691145133#1" to="-23979402#13" departLane="best" type="bus_bus"/>
    <trip id="bus12" depart="8.70" from="88497549#0" to="-73053361#10" departLane="best" type="bus_bus"/>
    <trip id="bus13" depart="9.42" from="48795303#2" to="214215470#1" departLane="best" type="bus_bus"/>
    <trip id="bus14" depart="10.15" from="385200734#12" to="26642650#0" departLane="best" type="bus_bus"/>
    <trip id="bus15" depart="10.87" from="1414763095#1" to="911229691#6" departLane="best" type="bus_bus"/>
    <trip id="bus16" depart="11.60" from="-911222968#1" to="1444285531#1" departLane="best" type="bus_bus"/>
    <trip id="bus17" depart="12.32" from="414781322#16" to="228173590#0" departLane="best" type="bus_bus"/>
    <trip id="bus18" depart="13.04" from="53278703#12" to="207895701#3" departLane="best" type="bus_bus"/>
    <trip id="bus19" depart="13.77" from="24041356#0" to="-1304251244#1" departLane="best" type="bus_bus"/>
    <trip id="bus20" depart="14.49" from="-275176288#0" to="-53279867#1" departLane="best" type="bus_bus"/>
    <trip id="bus21" depart="15.22" from="-1409740332" to="-30992563#1" departLane="best" type="bus_bus"/>
    <trip id="bus22" depart="15.94" from="-1445759460#2" to="-50878504#2" departLane="best" type="bus_bus" departSpeed="max"/>
    <trip id="bus23" depart="16.67" from="228944248#9" to="-912368455#1" departLane="best" type="bus_bus"/>
    <trip id="bus24" depart="17.39" from="-88497549#1" to="-27007138#0" departLane="best" type="bus_bus"/>
    <trip id="bus25" depart="18.12" from="-384959691#0" to="693656417#1" departLane="best" type="bus_bus"/>
    <trip id="bus26" depart="18.84" from="23477160#17" to="216728662#5" departLane="best" type="bus_bus"/>
    <trip id="bus27" depart="19.57" from="-24024772#12" to="26642648#3" departLane="best" type="bus_bus"/>
    <trip id="bus28" depart="20.29" from="-23994018#5" to="-98572426#0" departLane="best" type="bus_bus"/>
    <trip id="bus29" depart="21.02" from="920731516#4" to="23477160#9" departLane="best" type="bus_bus"/>
    <trip id="bus30" depart="21.74" from="1427251650#0" to="24040756#2" departLane="best" type="bus_bus"/>
    <trip id="bus31" depart="22.47" from="487759852#12" to="314480719#2" departLane="best" type="bus_bus"/>
    <trip id="bus32" depart="23.19" from="-275176920#0" to="-1222882860#8" departLane="best" type="bus_bus"/>
    <trip id="bus33" depart="23.92" from="-554048064" to="-414781322#3" departLane="best" type="bus_bus"/>
    <trip id="bus34" depart="24.64" from="-26642644#7" to="702593086#14" departLane="best" type="bus_bus"/>
    <trip id="bus35" depart="25.36" from="652090756#3" to="-691145129#6" departLane="best" type="bus_bus"/>
    <trip id="bus36" depart="26.09" from="23535107#17" to="1123615317#0" departLane="best" type="bus_bus"/>
    <trip id="bus37" depart="26.81" from="-37370130#4" to="-343641304#1" departLane="best" type="bus_bus"/>
    <trip id="bus38" depart="27.54" from="1431718356#2-AddedOnRampEdge" to="-40941250#10" departLane="best" type="bus_bus"/>
    <trip id="bus39" depart="28.26" from="189199969#10" to="690187864#7" departLane="best" type="bus_bus"/>
    <trip id="bus40" depart="28.99" from="928099276#9" to="1409740303#0" departLane="best" type="bus_bus"/>
    <trip id="bus41" depart="29.71" from="-1422516702" to="-1312808648#4" departLane="best" type="bus_bus"/>
    <trip id="bus42" depart="30.44" from="-1450165106#5" to="231174770#1" departLane="best" type="bus_bus"/>
    <trip id="bus43" depart="31.16" from="334057432#2" to="1203301959#2" departLane="best" type="bus_bus"/>
    <trip id="bus44" depart="31.89" from="-1347340107" to="1044663634" departLane="best" type="bus_bus"/>
    <trip id="bus45" depart="32.61" from="928099276#10" to="1416465077#4" departLane="best" type="bus_bus"/>
    <trip id="bus46" depart="33.34" from="911229691#4" to="527979094#2" departLane="best" type="bus_bus"/>
    <trip id="bus47" depart="34.06" from="-1156527827" to="258025940#5" departLane="best" type="bus_bus" departSpeed="max"/>
    <trip id="bus48" depart="34.79" from="24024772#13" to="1424832066#2" departLane="best" type="bus_bus"/>
    <trip id="bus49" depart="35.51" from="-384959685" to="23477162#3" departLane="best" type="bus_bus"/>
    <trip id="bus50" depart="36.24" from="-158804510#1" to="1222741589#1" departLane="best" type="bus_bus"/>
    <trip id="bus51" depart="36.96" from="1222741590#13" to="838515695#2" departLane="best" type="bus_bus"/>
    <trip id="bus52" depart="37.68" from="652090756#0" to="-40941250#14" departLane="best" type="bus_bus"/>
    <trip id="bus53" depart="38.41" from="1347340113#1" to="-24040748#7" departLane="best" type="bus_bus"/>
    <trip id="bus54" depart="39.13" from="691145137#2" to="548024820#1" departLane="best" type="bus_bus"/>
    <trip id="bus55" depart="39.86" from="-50878504#8" to="23477160#25" departLane="best" type="bus_bus"/>
    <trip id="bus56" depart="40.58" from="208515007#1" to="-23649211#10" departLane="best" type="bus_bus"/>
    <trip id="bus57" depart="41.31" from="30992563#4" to="1422516688" departLane="best" type="bus_bus"/>
    <trip id="bus58" depart="42.03" from="-103840645#1" to="-692514203#3" departLane="best" type="bus_bus"/>
    <trip id="bus59" depart="42.76" from="-1222741574#1" to="692910546#0" departLane="best" type="bus_bus"/>
    <trip id="bus60" depart="43.48" from="663149776#5" to="427629310#1" departLane="best" type="bus_bus"/>
    <trip id="bus61" depart="44.21" from="-531179429" to="-1334817306#5" departLane="best" type="bus_bus"/>
    <trip id="bus62" depart="44.93" from="663149776#1" to="740544188#3" departLane="best" type="bus_bus"/>
    <trip id="bus63" depart="45.66" from="-1414112452#1" to="1347340118" departLane="best" type="bus_bus"/>
    <trip id="bus64" depart="46.38" from="-1387053644#3" to="275457450#2" departLane="best" type="bus_bus"/>
    <trip id="bus65" depart="47.11" from="275177714#1" to="-213577305#1" departLane="best" type="bus_bus"/>
    <trip id="bus66" depart="47.83" from="1279918870#1" to="1433947190#0" departLane="best" type="bus_bus"/>
    <trip id="bus67" depart="48.55" from="-37370130#5" to="605261126#0" departLane="best" type="bus_bus"/>
    <trip id="bus68" depart="49.28" from="1414763099#1" to="26642650#1" departLane="best" type="bus_bus"/>
    <trip id="bus69" depart="50.00" from="-255773557" to="-690355196#5" departLane="best" type="bus_bus"/>
    <trip id="bus70" depart="50.73" from="925193172#7" to="23650459#5" departLane="best" type="bus_bus"/>
    <trip id="bus71" depart="51.45" from="1193892428" to="1412113036#1" departLane="best" type="bus_bus"/>
    <trip id="bus72" depart="52.18" from="-691145130#5" to="208514984#3" departLane="best" type="bus_bus"/>
    <trip id="bus73" depart="52.90" from="-1396148980#0" to="233432897#4" departLane="best" type="bus_bus"/>
    <trip id="bus74" depart="53.63" from="-275176920#0" to="691143808#9" departLane="best" type="bus_bus"/>
    <trip id="bus75" depart="54.35" from="531179427" to="-1409697567" departLane="best" type="bus_bus"/>
    <trip id="bus76" depart="55.08" from="-288039682#3" to="24024746#4" departLane="best" type="bus_bus"/>
    <trip id="bus77" depart="55.80" from="697105510#0" to="186752465#0" departLane="best" type="bus_bus" departSpeed="max"/>
    <trip id="bus78" depart="56.53" from="385200734#5" to="-247610446#3" departLane="best" type="bus_bus"/>
    <trip id="bus79" depart="57.25" from="-1428240097#1" to="1222741583#14" departLane="best" type="bus_bus"/>
    <trip id="bus80" depart="57.98" from="1155426003#3" to="1312808648#3" departLane="best" type="bus_bus"/>
    <trip id="bus81" depart="58.70" from="258025939#2" to="24024777#4" departLane="best" type="bus_bus"/>
    <trip id="bus82" depart="59.43" from="920675374#1" to="-1446517203#1" departLane="best" type="bus_bus"/>
    <trip id="bus83" depart="60.15" from="1085142670#2" to="-762215805#0" departLane="best" type="bus_bus"/>
    <trip id="bus84" depart="60.87" from="53278703#11" to="-37370127#1" departLane="best" type="bus_bus"/>
    <trip id="bus85" depart="61.60" from="-24041356#2" to="1235109780#1" departLane="best" type="bus_bus"/>
    <trip id="bus86" depart="62.32" from="1155212166#4" to="-50878504#6" departLane="best" type="bus_bus"/>
    <trip id="bus87" depart="63.05" from="-31510683#5" to="691218156#7" departLane="best" type="bus_bus"/>
    <trip id="bus88" depart="63.77" from="1207330012#0" to="531179425#0" departLane="best" type="bus_bus" departSpeed="max"/>
    <trip id="bus89" depart="64.50" from="1424832066#5" to="-1320158832#0" departLane="best" type="bus_bus"/>
    <trip id="bus90" depart="65.22" from="969999632#2" to="445143940#1" departLane="best" type="bus_bus"/>
    <trip id="bus91" depart="65.95" from="911225815#1" to="692514197#0" departLane="best" type="bus_bus"/>
    <trip id="bus92" depart="66.67" from="48795429#1" to="-24024772#1" departLane="best" type="bus_bus"/>
    <trip id="bus93" depart="67.40" from="1320158832#2" to="-27083101#7" departLane="best" type="bus_bus"/>
    <trip id="bus94" depart="68.12" from="1044662052" to="-1334817309" departLane="best" type="bus_bus"/>
    <trip id="bus95" depart="68.85" from="-911222968#3" to="920675374#6" departLane="best" type="bus_bus"/>
    <trip id="bus96" depart="69.57" from="-37370130#5" to="330579507#2" departLane="best" type="bus_bus"/>
    <trip id="bus97" depart="70.30" from="1222741590#23" to="1203301960#11" departLane="best" type="bus_bus"/>
    <trip id="bus98" depart="71.02" from="88497549#1" to="925193172#8" departLane="best" type="bus_bus"/>
    <trip id="bus99" depart="71.75" from="1427251645#1" to="257724952#3" departLane="best" type="bus_bus"/>
    <trip id="bus100" depart="72.47" from="-23534970#1" to="-605261126#16" departLane="best" type="bus_bus"/>
    <trip id="bus101" depart="73.19" from="911222968#7" to="208472457#2" departLane="best" type="bus_bus"/>
    <trip id="bus102" depart="73.92" from="1416465077#5" to="27108754#5" departLane="best" type="bus_bus"/>
    <trip id="bus103" depart="74.64" from="-1334817301" to="208493039#13" departLane="best" type="bus_bus"/>
    <trip id="bus104" depart="75.37" from="-236481181" to="88498029#0" departLane="best" type="bus_bus"/>
    <trip id="bus105" depart="76.09" from="-1410047962" to="-24041351#1" departLane="best" type="bus_bus"/>
    <trip id="bus106" depart="76.82" from="208493036#0" to="24024778#8" departLane="best" type="bus_bus"/>
    <trip id="bus107" depart="77.54" from="-277028961#2" to="-208493047#4" departLane="best" type="bus_bus"/>
    <trip id="bus108" depart="78.27" from="690187856#26" to="-339883509" departLane="best" type="bus_bus"/>
    <trip id="bus109" depart="78.99" from="1131912086#1" to="208493039#1" departLane="best" type="bus_bus"/>
    <trip id="bus110" depart="79.72" from="1409740300#0" to="693651833#5" departLane="best" type="bus_bus"/>
    <trip id="bus111" depart="80.44" from="-258025940#5" to="257724387#6" departLane="best" type="bus_bus"/>
    <trip id="bus112" depart="81.17" from="-288039682#8" to="1123615317#1" departLane="best" type="bus_bus"/>
    <trip id="bus113" depart="81.89" from="23989764#4" to="-652090756#1" departLane="best" type="bus_bus"/>
    <trip id="bus114" depart="82.62" from="-605093942#0" to="27280013#4" departLane="best" type="bus_bus"/>
    <trip id="bus115" depart="83.34" from="928109628" to="928099276#10" departLane="best" type="bus_bus"/>
    <trip id="bus116" depart="84.07" from="-1409697565" to="-27083101#4" departLane="best" type="bus_bus"/>
    <trip id="bus117" depart="84.79" from="-37370130#5" to="693651833#1" departLane="best" type="bus_bus"/>
    <trip id="bus118" depart="85.51" from="675942652#1" to="652090756#0" departLane="best" type="bus_bus"/>
    <trip id="bus119" depart="86.24" from="-88497548#5" to="-23994003#0" departLane="best" type="bus_bus"/>
    <trip id="bus120" depart="86.96" from="432527725" to="253478032#5" departLane="best" type="bus_bus"/>
    <trip id="bus121" depart="87.69" from="208518328#0" to="920675375#7" departLane="best" type="bus_bus" departSpeed="max"/>
    <trip id="bus122" depart="88.41" from="23534970#1" to="-1123614685#0" departLane="best" type="bus_bus"/>
    <trip id="bus123" depart="89.14" from="405538068#0" to="-611632070#5" departLane="best" type="bus_bus" departSpeed="max"/>
    <trip id="bus124" depart="89.86" from="23979402#17" to="697105510#3" departLane="best" type="bus_bus"/>
    <trip id="bus125" depart="90.59" from="-214215519#1" to="-206984892#1" departLane="best" type="bus_bus"/>
    <trip id="bus126" depart="91.31" from="-1449304890#23" to="1446517203#1" departLane="best" type="bus_bus"/>
    <trip id="bus127" depart="92.04" from="257692765#5" to="-26642644#4" departLane="best" type="bus_bus"/>
    <trip id="bus128" depart="92.76" from="228943295#6" to="-40941250#9" departLane="best" type="bus_bus"/>
    <trip id="bus129" depart="93.49" from="1320158851#9" to="691143808#9" departLane="best" type="bus_bus"/>
    <trip id="bus130" depart="94.21" from="48795300#2" to="-1427251649#1" departLane="best" type="bus_bus"/>
    <trip id="bus131" depart="94.94" from="1155426003#3" to="-490727027#1" departLane="best" type="bus_bus"/>
    <trip id="bus132" depart="95.66" from="-1087070301#1" to="30992562#0" departLane="best" type="bus_bus"/>
    <trip id="bus133" depart="96.39" from="231174770#0" to="-40755926#2" departLane="best" type="bus_bus"/>
    <trip id="bus134" depart="97.11" from="26642650#3" to="1444285530" departLane="best" type="bus_bus"/>
    <trip id="bus135" depart="97.83" from="1158223067#4" to="-1146968966#1" departLane="best" type="bus_bus"/>
    <trip id="bus136" depart="98.56" from="-1409740302" to="663149777#3" departLane="best" type="bus_bus"/>
    <trip id="bus137" depart="99.28" from="444144811#1" to="208493036#4" departLane="best" type="bus_bus"/>
    <trip id="bus138" depart="100.01" from="-23477160#12" to="-208907445#5" departLane="best" type="bus_bus"/>
    <trip id="bus139" depart="100.73" from="-53275456#6" to="690192473#1" departLane="best" type="bus_bus"/>
    <trip id="bus140" depart="101.46" from="349962357#0" to="527979094#2" departLane="best" type="bus_bus"/>
    <trip id="bus141" depart="102.18" from="690355194#3" to="-27007139" departLane="best" type="bus_bus"/>
    <trip id="bus142" depart="102.91" from="-31510683#3" to="-1449304890#25" departLane="best" type="bus_bus"/>
    <trip id="bus143" depart="103.63" from="314480719#1" to="675942652#0" departLane="best" type="bus_bus"/>
    <trip id="bus144" depart="104.36" from="1087070300#1" to="228470346#1" departLane="best" type="bus_bus"/>
    <trip id="bus145" depart="105.08" from="-23534965#5" to="692910576" departLane="best" type="bus_bus"/>
    <trip id="bus146" depart="105.81" from="539985272#0" to="912363096#3" departLane="best" type="bus_bus"/>
    <trip id="bus147" depart="106.53" from="38566693#4" to="663149775" departLane="best" type="bus_bus"/>
    <trip id="bus148" depart="107.26" from="-690187867#3" to="692911407#4" departLane="best" type="bus_bus"/>
    <trip id="bus149" depart="107.98" from="384959682" to="53278703#10" departLane="best" type="bus_bus"/>
    <trip id="bus150" depart="108.71" from="38566693#3" to="-414781322#16" departLane="best" type="bus_bus"/>
    <trip id="bus151" depart="109.43" from="31541469#7" to="-175953575#0" departLane="best" type="bus_bus"/>
    <trip id="bus152" depart="110.15" from="605261126#4" to="525940934#3" departLane="best" type="bus_bus"/>
    <trip id="bus153" depart="110.88" from="-27108754#6" to="401358083#8" departLane="best" type="bus_bus"/>
    <trip id="bus154" depart="111.60" from="1222882863#5" to="-690187841#2" departLane="best" type="bus_bus"/>
    <trip id="bus155" depart="112.33" from="-1222741584#1" to="-255773556" departLane="best" type="bus_bus"/>
    <trip id="bus156" depart="113.05" from="-690187850#0" to="53278703#12" departLane="best" type="bus_bus"/>
    <trip id="bus157" depart="113.78" from="911221034" to="-510754407#2" departLane="best" type="bus_bus"/>
    <trip id="bus158" depart="114.50" from="23444306#1" to="1131912086#2" departLane="best" type="bus_bus"/>
    <trip id="bus159" depart="115.23" from="914893644" to="1424832065#1" departLane="best" type="bus_bus" departSpeed="max"/>
    <trip id="bus160" depart="115.95" from="698441638#1" to="-206984892#0" departLane="best" type="bus_bus"/>
    <trip id="bus161" depart="116.68" from="911229690#3" to="-24040748#7" departLane="best" type="bus_bus"/>
    <trip id="bus162" depart="117.40" from="911113150#0" to="-414399964#2" departLane="best" type="bus_bus"/>
    <trip id="bus163" depart="118.13" from="-1449304890#5" to="1222741588#0" departLane="best" type="bus_bus"/>
    <trip id="bus164" depart="118.85" from="258025932#0" to="-691145129#18" departLane="best" type="bus_bus"/>
    <trip id="bus165" depart="119.58" from="208514994#0" to="1409740309#1" departLane="best" type="bus_bus" departSpeed="max"/>
    <trip id="bus166" depart="120.30" from="-912374363#2" to="206984892#1" departLane="best" type="bus_bus"/>
    <trip id="bus167" depart="121.02" from="-318705365#2" to="257692765#1" departLane="best" type="bus_bus" departSpeed="max"/>
    <trip id="bus168" depart="121.75" from="-1085142670#0" to="691339338#6" departLane="best" type="bus_bus"/>
    <trip id="bus169" depart="122.47" from="1414763098#1" to="258025932#0" departLane="best" type="bus_bus"/>
    <trip id="bus170" depart="123.20" from="26642650#7" to="24024772#2" departLane="best" type="bus_bus"/>
    <trip id="bus171" depart="123.92" from="23979402#7" to="-697105510#0" departLane="best" type="bus_bus"/>
    <trip id="bus172" depart="124.65" from="-544489408#0" to="48795303#4" departLane="best" type="bus_bus"/>
    <trip id="bus173" depart="125.37" from="257692778#2" to="-652090756#3" departLane="best" type="bus_bus"/>
    <trip id="bus174" depart="126.10" from="-53278703#11" to="1165287687#1" departLane="best" type="bus_bus"/>
    <trip id="bus175" depart="126.82" from="1085142670#1" to="-605261126#0" departLane="best" type="bus_bus"/>
    <trip id="bus176" depart="127.55" from="-208514990#0" to="1193893938#1" departLane="best" type="bus_bus"/>
    <trip id="bus177" depart="128.27" from="702593086#1" to="24039803#4" departLane="best" type="bus_bus"/>
    <trip id="bus178" depart="129.00" from="691143809#5" to="227100661" departLane="best" type="bus_bus"/>
    <trip id="bus179" depart="129.72" from="-51969609#1" to="1431718356#0" departLane="best" type="bus_bus" departSpeed="max"/>
    <trip id="bus180" depart="130.45" from="-103840645#0" to="-53275456#5" departLane="best" type="bus_bus"/>
    <trip id="bus181" depart="131.17" from="1184937910" to="208472460#2" departLane="best" type="bus_bus"/>
    <trip id="bus182" depart="131.90" from="23535107#12" to="1310431197#1" departLane="best" type="bus_bus"/>
    <trip id="bus183" depart="132.62" from="1204493088" to="-27083101#7" departLane="best" type="bus_bus"/>
    <trip id="bus184" depart="133.34" from="1272645241" to="690355178#1" departLane="best" type="bus_bus"/>
    <trip id="bus185" depart="134.07" from="349962357#0" to="-24024777#2" departLane="best" type="bus_bus"/>
    <trip id="bus186" depart="134.79" from="228767959#2" to="-702593086#13" departLane="best" type="bus_bus"/>
    <trip id="bus187" depart="135.52" from="40755919#2" to="27280013#0" departLane="best" type="bus_bus"/>
    <trip id="bus188" depart="136.24" from="23994018#1" to="-275457450#6" departLane="best" type="bus_bus"/>
    <trip id="bus189" depart="136.97" from="-253295665#1" to="-1222741583#4" departLane="best" type="bus_bus" departSpeed="max"/>
    <trip id="bus190" depart="137.69" from="-30992563#7" to="1321447078#1" departLane="best" type="bus_bus"/>
    <trip id="bus191" depart="138.42" from="496426098#1" to="-1409740303#0" departLane="best" type="bus_bus"/>
    <trip id="bus192" depart="139.14" from="1123614689" to="233042675#1" departLane="best" type="bus_bus"/>
    <trip id="bus193" depart="139.87" from="-247610446#1" to="246762956#3" departLane="best" type="bus_bus"/>
    <trip id="bus194" depart="140.59" from="1334817306#0" to="-330579514#1" departLane="best" type="bus_bus"/>
    <trip id="bus195" depart="141.32" from="23535107#5" to="-1106613146" departLane="best" type="bus_bus"/>
    <trip id="bus196" depart="142.04" from="27064537#5" to="30992559#1" departLane="best" type="bus_bus"/>
    <trip id="bus197" depart="142.77" from="-1449304890#2" to="1208249027#5" departLane="best" type="bus_bus"/>
    <trip id="bus198" depart="143.49" from="-24024778#6" to="88497026#3" departLane="best" type="bus_bus"/>
    <trip id="bus199" depart="144.22" from="1396656199#3" to="-1320158831#2" departLane="best" type="bus_bus"/>
    <trip id="bus200" depart="144.94" from="-31510683#13" to="48795303#6" departLane="best" type="bus_bus"/>
    <trip id="bus201" depart="145.66" from="1222741596" to="38231643#3" departLane="best" type="bus_bus"/>
    <trip id="bus202" depart="146.39" from="23979404#23" to="920690085#0" departLane="best" type="bus_bus"/>
    <trip id="bus203" depart="147.11" from="208493036#2" to="778838005#2" departLane="best" type="bus_bus"/>
    <trip id="bus204" depart="147.84" from="690187856#31" to="22576030#2" departLane="best" type="bus_bus"/>
    <trip id="bus205" depart="148.56" from="257692772#5" to="1408788638" departLane="best" type="bus_bus"/>
    <trip id="bus206" depart="149.29" from="414781322#4" to="1431718356#0" departLane="best" type="bus_bus"/>
    <trip id="bus207" depart="150.01" from="690355177#0" to="27083680#12" departLane="best" type="bus_bus"/>
    <trip id="bus208" depart="150.74" from="1279020894#8" to="-401358083#5" departLane="best" type="bus_bus"/>
    <trip id="bus209" depart="151.46" from="-314480719#13" to="23477160#19" departLane="best" type="bus_bus"/>
    <trip id="bus210" depart="152.19" from="275177714#1" to="1413624406" departLane="best" type="bus_bus"/>
    <trip id="bus211" depart="152.91" from="228168651#5" to="-467058778#15" departLane="best" type="bus_bus"/>
    <trip id="bus212" depart="153.64" from="-1409740310#0" to="-531179426#0" departLane="best" type="bus_bus"/>
    <trip id="bus213" depart="154.36" from="-38566697" to="-691215052#2" departLane="best" type="bus_bus"/>
    <trip id="bus214" depart="155.09" from="1414763099#6" to="-229916943" departLane="best" type="bus_bus"/>
    <trip id="bus215" depart="155.81" from="-275178109#1" to="245293583#0" departLane="best" type="bus_bus" departSpeed="max"/>
    <trip id="bus216" depart="156.54" from="245293583#1" to="-1361117795#0" departLane="best" type="bus_bus"/>
    <trip id="bus217" depart="157.26" from="1123615318#0" to="-26642648#6" departLane="best" type="bus_bus"/>
    <trip id="bus218" depart="157.98" from="1146968966#1" to="691143808#6" departLane="best" type="bus_bus"/>
    <trip id="bus219" depart="158.71" from="189199968#2" to="245966329#1" departLane="best" type="bus_bus"/>
    <trip id="bus220" depart="159.43" from="-911227003" to="-1107026446#0" departLane="best" type="bus_bus"/>
    <trip id="bus221" depart="160.16" from="1131912086#0" to="27108754#1" departLane="best" type="bus_bus"/>
    <trip id="bus222" depart="160.88" from="1423481107#4" to="213577305#4" departLane="best" type="bus_bus"/>
    <trip id="bus223" depart="161.61" from="-27108752#0" to="-275176286#0" departLane="best" type="bus_bus"/>
    <trip id="bus224" depart="162.33" from="1187506592#1" to="-1222741590#6" departLane="best" type="bus_bus"/>
    <trip id="bus225" depart="163.06" from="-691145129#20" to="24039820#4" departLane="best" type="bus_bus"/>
    <trip id="bus226" depart="163.78" from="1085142674" to="-24024746#0" departLane="best" type="bus_bus"/>
    <trip id="bus227" depart="164.51" from="1239813217" to="-208907445#7" departLane="best" type="bus_bus"/>
    <trip id="bus228" depart="165.23" from="22576030#12" to="-1222741590#12" departLane="best" type="bus_bus"/>
    <trip id="bus229" depart="165.96" from="-925193172#2" to="154454126#9" departLane="best" type="bus_bus"/>
    <trip id="bus230" depart="166.68" from="-1222741590#4" to="23534965#3" departLane="best" type="bus_bus"/>
    <trip id="bus231" depart="167.41" from="-216250083#4" to="1300897071#12" departLane="best" type="bus_bus" departSpeed="max"/>
    <trip id="bus232" depart="168.13" from="-1320158818#1" to="-969999632#1" departLane="best" type="bus_bus"/>
    <trip id="bus233" depart="168.86" from="-26642645#2" to="-692910546#4" departLane="best" type="bus_bus"/>
    <trip id="bus234" depart="169.58" from="27280013#1" to="-969999632#1" departLane="best" type="bus_bus"/>
    <trip id="bus235" depart="170.30" from="27083100#3" to="427629310#1" departLane="best" type="bus_bus"/>
    <trip id="bus236" depart="171.03" from="-31541469#4" to="-1412113038" departLane="best" type="bus_bus"/>
    <trip id="bus237" depart="171.75" from="-1222741574#1" to="1425819464#2" departLane="best" type="bus_bus"/>
    <trip id="bus238" depart="172.48" from="23477160#6" to="31541469#5" departLane="best" type="bus_bus"/>
    <trip id="bus239" depart="173.20" from="23477162#4" to="275176286#0" departLane="best" type="bus_bus"/>
    <trip id="bus240" depart="173.93" from="-1222741583#13" to="-236481182" departLane="best" type="bus_bus"/>
    <trip id="bus241" depart="174.65" from="-208514988#1" to="24024772#0" departLane="best" type="bus_bus"/>
    <trip id="bus242" depart="175.38" from="1436650661#2" to="-27280013#3" departLane="best" type="bus_bus"/>
    <trip id="bus243" depart="176.10" from="24041003#6" to="292510790#3" departLane="best" type="bus_bus"/>
    <trip id="bus244" depart="176.83" from="-24011166#8" to="216250083#1" departLane="best" type="bus_bus"/>
    <trip id="bus245" depart="177.55" from="26993007#5" to="-202535350" departLane="best" type="bus_bus"/>
    <trip id="bus246" depart="178.28" from="40755923#5" to="911115421#3" departLane="best" type="bus_bus"/>
    <trip id="bus247" depart="179.00" from="-1449304890#4" to="-1222741587#1" departLane="best" type="bus_bus"/>
    <trip id="bus248" depart="179.73" from="-536817572" to="24039803#4" departLane="best" type="bus_bus"/>
    <trip id="bus249" depart="180.45" from="88498029#0" to="1123881599#3" departLane="best" type="bus_bus"/>
    <trip id="bus250" depart="181.18" from="255775042#1" to="-1409740320" departLane="best" type="bus_bus"/>
    <trip id="bus251" depart="181.90" from="24039820#4" to="231174770#0" departLane="best" type="bus_bus"/>
    <trip id="bus252" depart="182.62" from="-1446517203#1" to="30992563#1" departLane="best" type="bus_bus"/>
    <trip id="bus253" depart="183.35" from="498583688#1" to="208907445#2" departLane="best" type="bus_bus"/>
    <trip id="bus254" depart="184.07" from="31510683#12" to="-88497026#0" departLane="best" type="bus_bus"/>
    <trip id="bus255" depart="184.80" from="1165287688#0" to="-920727961#0" departLane="best" type="bus_bus"/>
    <trip id="bus256" depart="185.52" from="1374191444#4" to="-785750009#10" departLane="best" type="bus_bus"/>
    <trip id="bus257" depart="186.25" from="496426098#0" to="40941250#10" departLane="best" type="bus_bus"/>
    <trip id="bus258" depart="186.97" from="-1449304890#12" to="88498029#0" departLane="best" type="bus_bus"/>
    <trip id="bus259" depart="187.70" from="228944248#6" to="414781322#21" departLane="best" type="bus_bus"/>
    <trip id="bus260" depart="188.42" from="246762956#0" to="1222741590#12" departLane="best" type="bus_bus"/>
    <trip id="bus261" depart="189.15" from="-38566693#2" to="385204712#1" departLane="best" type="bus_bus"/>