<?xml version="1.0" encoding="UTF-8"?>

<!-- generated on 2025-11-22 00:22:02.331439 by osmWebWizard.py v1_24_0+0000-b72eb3fabc8
<configuration>
    <net-file value="/home/yarl/Desktop/sumo/tools/2025-11-22-00-20-46/osm.net.xml.gz"/>
    <output-trip-file value="/home/yarl/Desktop/sumo/tools/2025-11-22-00-20-46/osm.truck.trips.xml"/>
    <route-file value="/home/yarl/Desktop/sumo/tools/2025-11-22-00-20-46/osm.truck.rou.xml"/>
    <prefix value="truck"/>
    <trip-attributes value="departLane=&quot;best&quot;"/>
    <fringe-start-attributes value="departSpeed=&quot;max&quot;"/>
    <vehicle-class value="truck"/>
    <fringe-factor value="5"/>
    <edge-permission value="truck"/>
    <via-edge-types value="highway.motorway,highway.motorway_link,highway.trunk_link,highway.primary_link,highway.secondary_link,highway.tertiary_link"/>
    <seed value="45"/>
    <min-distance value="600.0"/>
    <min-distance.fringe value="10.0"/>
    <remove-loops value="True"/>
    <insertion-density value="1.0"/>
</configuration>
-->

<routes xmlns:xsi="http://www.w3.org/2001/XMLSchema-instance" xsi:noNamespaceSchemaLocation="http://sumo.dlr.de/xsd/routes_file.xsd">
    <vType id="truck_truck" vClass="truck"/>
    <trip id="truck0" depart="0.00" from="-401358083#1" to="1374191444#3" departLane="best" type="truck_truck"/>
    <trip id="truck1" depart="7.28" from="-1409740300#0" to="-1155426003#0" departLane="best" type="truck_truck"/>
    <trip id="truck2" depart="14.56" from="-427629310#1" to="-208514985#4" departLane="best" type="truck_truck" departSpeed="max"/>
    <trip id="truck3" depart="21.84" from="-544059267#2" to="27085128#5" departLane="best" type="truck_truck"/>
    <trip id="truck4" depart="29.12" from="-1224005429#1" to="232389026#1" departLane="best" type="truck_truck"/>
    <trip id="truck5" depart="36.40" from="-222570183#3" to="353278597#2" departLane="best" type="truck_truck"/>
    <trip id="truck6" depart="43.68" from="26642646#3" to="-27108752#2" departLane="best" type="truck_truck"/>
    <trip id="truck7" depart="50.96" from="490727027#1" to="258025932#1" departLane="best" type="truck_truck"/>
    <trip id="truck8" depart="58.24" from="-1409740309#1" to="1185785532#3" departLane="best" type="truck_truck"/>
    <trip id="truck9" depart="65.53" from="24041344#15" to="691218156#8" departLane="best" type="truck_truck"/>
    <trip id="truck10" depart="72.81" from="-24024777#5" to="-38566870#3" departLane="best" type="truck_truck"/>
    <trip id="truck11" depart="80.09" from="30992560#5" to="911110044#3" departLane="best" type="truck_truck"/>
    <trip id="truck12" depart="87.37" from="27083101#1" to="-691218153#0" departLane="best" type="truck_truck"/>
    <trip id="truck13" depart="94.65" from="-920731517#0" to="615947439#1" departLane="best" type="truck_truck"/>
    <trip id="truck14" depart="101.93" from="26993007#3" to="24011125#0" departLane="best" type="truck_truck"/>
    <trip id="truck15" depart="109.21" from="554048065#2" to="26902000#22" departLane="best" type="truck_truck"/>
    <trip id="truck16" depart="116.49" from="208493036#8" to="-1347340104#1" departLane="best" type="truck_truck"/>
    <trip id="truck17" depart="123.77" from="-697105512" to="232472316#4" departLane="best" type="truck_truck" departSpeed="max"/>
    <trip id="truck18" depart="131.05" from="-1207330012#1" to="1408203413#3" departLane="best" type="truck_truck"/>
    <trip id="truck19" depart="138.33" from="1124255387#1" to="455739176#2" departLane="best" type="truck_truck"/>
    <trip id="truck20" depart="145.61" from="-233042675#3" to="1284828477" departLane="best" type="truck_truck"/>
    <trip id="truck21" depart="152.89" from="-1414763103#0" to="1103848385#1" departLane="best" type="truck_truck"/>
    <trip id="truck22" depart="160.17" from="682835983#6" to="227100661" departLane="best" type="truck_truck"/>
    <trip id="truck23" depart="167.45" from="-1222882860#2" to="527979087" departLane="best" type="truck_truck"/>
    <trip id="truck24" depart="174.73" from="23650459#7" to="1414763097#2" departLane="best" type="truck_truck"/>
    <trip id="truck25" depart="182.02" from="-466839422#3" to="-685519833" departLane="best" type="truck_truck"/>
    <trip id="truck26" depart="189.30" from="-24041003#17" to="228944248#14" departLane="best" type="truck_truck"/>
    <trip id="truck27" depart="196.58" from="-1320158833#1" to="73053361#8" departLane="best" type="truck_truck"/>
    <trip id="truck28" depart="203.86" from="-1449304890#1" to="231174770#0" departLane="best" type="truck_truck"/>
    <trip id="truck29" depart="211.14" from="171898837#1" to="-914893644" departLane="best" type="truck_truck"/>
    <trip id="truck30" depart="218.42" from="-414021093#0" to="1222882868#2" departLane="best" type="truck_truck"/>
    <trip id="truck31" depart="225.70" from="-690187867#0" to="911229690#2" departLane="best" type="truck_truck"/>
    <trip id="truck32" depart="232.98" from="23477160#15" to="1414112453#3" departLane="best" type="truck_truck"/>
    <trip id="truck33" depart="240.26" from="23979404#10" to="1387053958#3" departLane="best" type="truck_truck"/>
    <trip id="truck34" depart="247.54" from="-23477160#7" to="-1222741583#24" departLane="best" type="truck_truck"/>
    <trip id="truck35" depart="254.82" from="911229690#3" to="487759852#4" departLane="best" type="truck_truck"/>
    <trip id="truck36" depart="262.10" from="-1428337347#0" to="22576050#3" departLane="best" type="truck_truck"/>
    <trip id="truck37" depart="269.38" from="31541469#3" to="690187856#33" departLane="best" type="truck_truck"/>
    <trip id="truck38" depart="276.66" from="-1365663500#4" to="-228464702#3" departLane="best" type="truck_truck" departSpeed="max"/>
    <trip id="truck39" depart="283.94" from="-928099276#2" to="215136037#6" departLane="best" type="truck_truck"/>
    <trip id="truck40" depart="291.22" from="498583688#0" to="1122250663" departLane="best" type="truck_truck"/>
    <trip id="truck41" depart="298.51" from="445143939#0" to="1087070300#3" departLane="best" type="truck_truck"/>
    <trip id="truck42" depart="305.79" from="1087070300#2" to="1085142625#0" departLane="best" type="truck_truck"/>
    <trip id="truck43" depart="313.07" from="253478032#2" to="675942651#0" departLane="best" type="truck_truck"/>
    <trip id="truck44" depart="320.35" from="-1409740299" to="208514995#0" departLane="best" type="truck_truck"/>
    <trip id="truck45" depart="327.63" from="458343287#0" to="245951650#4" departLane="best" type="truck_truck"/>
    <trip id="truck46" depart="334.91" from="-288039682#0" to="-914915300" departLane="best" type="truck_truck"/>
    <trip id="truck47" depart="342.19" from="690187850#2" to="-275176286#1" departLane="best" type="truck_truck"/>
    <trip id="truck48" depart="349.47" from="88496051#3" to="1123881599#2" departLane="best" type="truck_truck"/>
    <trip id="truck49" depart="356.75" from="1409740303#1" to="257692772#2" departLane="best" type="truck_truck"/>
    <trip id="truck50" depart="364.03" from="24024777#1" to="208514995#2" departLane="best" type="truck_truck"/>
    <trip id="truck51" depart="371.31" from="554048065#1" to="23534970#1" departLane="best" type="truck_truck"/>
    <trip id="truck52" depart="378.59" from="691215052#0" to="23979403#4" departLane="best" type="truck_truck"/>
    <trip id="truck53" depart="385.87" from="208136417#0" to="-1334817310#3" departLane="best" type="truck_truck" departSpeed="max"/>
    <trip id="truck54" depart="393.15" from="691145135#1" to="-30992563#1" departLane="best" type="truck_truck"/>
    <trip id="truck55" depart="400.43" from="-275176919#0" to="-1320158834#0" departLane="best" type="truck_truck"/>
    <trip id="truck56" depart="407.71" from="22576050#5" to="-925193172#2" departLane="best" type="truck_truck"/>
    <trip id="truck57" depart="415.00" from="23535107#16" to="401358083#15" departLane="best" type="truck_truck"/>
    <trip id="truck58" depart="422.28" from="73053361#1" to="385200732#2" departLane="best" type="truck_truck"/>
    <trip id="truck59" depart="429.56" from="466850669#0" to="1087070298#0" departLane="best" type="truck_truck"/>
    <trip id="truck60" depart="436.84" from="925193172#7" to="1312808648#3" departLane="best" type="truck_truck"/>
    <trip id="truck61" depart="444.12" from="690355196#6" to="183602958#1" departLane="best" type="truck_truck"/>
    <trip id="truck62" depart="451.40" from="-920689543" to="436865197#2" departLane="best" type="truck_truck"/>
    <trip id="truck63" depart="458.68" from="-1356123647#2" to="-914893644" departLane="best" type="truck_truck"/>
    <trip id="truck64" depart="465.96" from="24041003#14" to="-1414763098#6" departLane="best" type="truck_truck"/>
    <trip id="truck65" depart="473.24" from="1427251650#0" to="1118693111" departLane="best" type="truck_truck"/>
    <trip id="truck66" depart="480.52" from="-27108754#8" to="1184937910" departLane="best" type="truck_truck" departSpeed="max"/>
    <trip id="truck67" depart="487.80" from="26902000#25" to="24024777#2" departLane="best" type="truck_truck"/>
    <trip id="truck68" depart="495.08" from="1123614684" to="208493039#12" departLane="best" type="truck_truck"/>
    <trip id="truck69" depart="502.36" from="23979404#7" to="232472316#4" departLane="best" type="truck_truck"/>
    <trip id="truck70" depart="509.64" from="37370127#0" to="920675374#1" departLane="best" type="truck_truck"/>
    <trip id="truck71" depart="516.92" from="257724387#7" to="912358838#3" departLane="best" type="truck_truck"/>
    <trip id="truck72" depart="524.20" from="23648943#0" to="-51979958#0" departLane="best" type="truck_truck"/>
    <trip id="truck73" depart="531.49" from="553531775#0" to="24024777#1" departLane="best" type="truck_truck"/>
    <trip id="truck74" depart="538.77" from="228464702#3" to="-23534965#4" departLane="best" type="truck_truck"/>
    <trip id="truck75" depart="546.05" from="175953575#0" to="691218156#8" departLane="best" type="truck_truck"/>
    <trip id="truck76" depart="553.33" from="-912374363#1" to="-1211482736#6" departLane="best" type="truck_truck"/>
    <trip id="truck77" depart="560.61" from="-208514985#4" to="1427251626" departLane="best" type="truck_truck"/>
    <trip id="truck78" depart="567.89" from="487759852#25" to="-1320158833#1" departLane="best" type="truck_truck"/>
    <trip id="truck79" depart="575.17" from="1123615318#1" to="-785750009#4" departLane="best" type="truck_truck"/>
    <trip id="truck80" depart="582.45" from="1374191444#5" to="-467058778#2" departLane="best" type="truck_truck"/>
    <trip id="truck81" depart="589.73" from="605261126#11" to="38566695#2" departLane="best" type="truck_truck"/>
    <trip id="truck82" depart="597.01" from="690355189#0" to="-214215519#2" departLane="best" type="truck_truck"/>
    <trip id="truck83" depart="604.29" from="1414763098#0" to="-31517013#0" departLane="best" type="truck_truck"/>
    <trip id="truck84" depart="611.57" from="-1433804585#1" to="692514206#0" departLane="best" type="truck_truck"/>
    <trip id="truck85" depart="618.85" from="23978205#3" to="1292156358#4" departLane="best" type="truck_truck"/>
    <trip id="truck86" depart="626.13" from="275457450#13" to="496426098#2" departLane="best" type="truck_truck"/>
    <trip id="truck87" depart="633.41" from="1241852587#0" to="-183604223#1" departLane="best" type="truck_truck" departSpeed="max"/>
    <trip id="truck88" depart="640.69" from="691143809#2" to="1409740307#0" departLane="best" type="truck_truck"/>
    <trip id="truck89" depart="647.98" from="1155212167" to="-258487338#1" departLane="best" type="truck_truck"/>
    <trip id="truck90" depart="655.26" from="1409740303#0" to="544059267#3" departLane="best" type="truck_truck"/>
    <trip id="truck91" depart="662.54" from="693656417#1" to="-23477160#21" departLane="best" type="truck_truck"/>
    <trip id="truck92" depart="669.82" from="-208493036#2" to="920732520#1" departLane="best" type="truck_truck"/>
    <trip id="truck93" depart="677.10" from="1409740317#2" to="23477160#15" departLane="best" type="truck_truck"/>
    <trip id="truck94" depart="684.38" from="24041003#0" to="1187506597" departLane="best" type="truck_truck"/>
    <trip id="truck95" depart="691.66" from="1008066980" to="605093942#2" departLane="best" type="truck_truck"/>
    <trip id="truck96" depart="698.94" from="-124482977#3" to="466839422#6" departLane="best" type="truck_truck"/>
    <trip id="truck97" depart="706.22" from="208493039#1" to="27108754#4" departLane="best" type="truck_truck"/>
    <trip id="truck98" depart="713.50" from="1361117795#0" to="257692795#6" departLane="best" type="truck_truck"/>
    <trip id="truck99" depart="720.78" from="-692911404" to="-920723063#1" departLane="best" type="truck_truck"/>
    <trip id="truck100" depart="728.06" from="-691218156#8" to="-605261126#2" departLane="best" type="truck_truck" departSpeed="max"/>
    <trip id="truck101" depart="735.34" from="1424832064#2" to="-125617976" departLane="best" type="truck_truck"/>
    <trip id="truck102" depart="742.62" from="692911407#5" to="38566695#2" departLane="best" type="truck_truck"/>
    <trip id="truck103" depart="749.90" from="233432897#4" to="911115421#1" departLane="best" type="truck_truck"/>
    <trip id="truck104" depart="757.18" from="27085128#3" to="222570191#0" departLane="best" type="truck_truck"/>
    <trip id="truck105" depart="764.47" from="-691145131#8" to="228944248#9" departLane="best" type="truck_truck"/>
    <trip id="truck106" depart="771.75" from="1156650711#1" to="-24040567#3" departLane="best" type="truck_truck"/>
    <trip id="truck107" depart="779.03" from="24024778#6" to="1009487434#1" departLane="best" type="truck_truck"/>
    <trip id="truck108" depart="786.31" from="-436865197#0" to="-1449304898" departLane="best" type="truck_truck"/>
    <trip id="truck109" depart="793.59" from="432526768" to="498572667" departLane="best" type="truck_truck"/>
    <trip id="truck110" depart="800.87" from="1211482741#1" to="228470345" departLane="best" type="truck_truck"/>
    <trip id="truck111" depart="808.15" from="48795301" to="255768618#4" departLane="best" type="truck_truck"/>
    <trip id="truck112" depart="815.43" from="920723063#4" to="-23477162#11" departLane="best" type="truck_truck"/>
    <trip id="truck113" depart="822.71" from="-1428337346#1" to="-208514990#1" departLane="best" type="truck_truck"/>
    <trip id="truck114" depart="829.99" from="702593086#11" to="-655430041#1" departLane="best" type="truck_truck"/>
    <trip id="truck115" depart="837.27" from="-1409740304#1" to="-23649211#7" departLane="best" type="truck_truck"/>
    <trip id="truck116" depart="844.55" from="-1222741583#4" to="1424832065#1" departLane="best" type="truck_truck"/>
    <trip id="truck117" depart="851.83" from="-1222741583#11" to="-1236756366" departLane="best" type="truck_truck"/>
    <trip id="truck118" depart="859.11" from="24039820#3" to="-1044662052" departLane="best" type="truck_truck"/>
    <trip id="truck119" depart="866.39" from="-30992559#1" to="124482977#6" departLane="best" type="truck_truck"/>
    <trip id="truck120" depart="873.67" from="1123615317#1" to="693651829#2" departLane="best" type="truck_truck"/>
    <trip id="truck121" depart="880.96" from="693656423#1" to="1408788638" departLane="best" type="truck_truck"/>
    <trip id="truck122" depart="888.24" from="215136037#3" to="-911225815#1" departLane="best" type="truck_truck"/>
    <trip id="truck123" depart="895.52" from="23477158#6" to="-1334817310#2" departLane="best" type="truck_truck"/>
    <trip id="truck124" depart="902.80" from="-24041356#2" to="414399964#2" departLane="best" type="truck_truck"/>
    <trip id="truck125" depart="910.08" from="1222882869#1" to="1387053958#4" departLane="best" type="truck_truck"/>
    <trip id="truck126" depart="917.36" from="436865197#0" to="23979404#11" departLane="best" type="truck_truck"/>
    <trip id="truck127" depart="924.64" from="-24024777#10" to="1320158819#1" departLane="best" type="truck_truck"/>
    <trip id="truck128" depart="931.92" from="87741571#2" to="-258487338#3" departLane="best" type="truck_truck"/>
    <trip id="truck129" depart="939.20" from="-42650756#0" to="-275457450#12" departLane="best" type="truck_truck"/>
    <trip id="truck130" depart="946.48" from="23535107#16" to="27280013#1" departLane="best" type="truck_truck"/>
    <trip id="truck131" depart="953.76" from="655430041#3" to="-23477160#0" departLane="best" type="truck_truck"/>
    <trip id="truck132" depart="961.04" from="-38566870#5" to="24039739#0" departLane="best" type="truck_truck"/>
    <trip id="truck133" depart="968.32" from="214215519#0" to="-911115920" departLane="best" type="truck_truck"/>
    <trip id="truck134" depart="975.60" from="-401358083#7" to="-1422516706" departLane="best" type="truck_truck"/>
    <trip id="truck135" depart="982.88" from="-27083101#2" to="525940934#3" departLane="best" type="truck_truck"/>
    <trip id="truck136" depart="990.16" from="-911115753#1" to="23979404#16" departLane="best" type="truck_truck"/>
    <trip id="truck137" depart="997.45" from="1222741584#1" to="-31517011#0" departLane="best" type="truck_truck"/>
    <trip id="truck138" depart="1004.73" from="1186969093#2" to="-292510789#0" departLane="best" type="truck_truck"/>
    <trip id="truck139" depart="1012.01" from="1185785535#3" to="-258025940#0" departLane="best" type="truck_truck"/>
    <trip id="truck140" depart="1019.29" from="-210720209#1" to="353278595#1" departLane="best" type="truck_truck" departSpeed="max"/>
    <trip id="truck141" depart="1026.57" from="-544489408#1" to="24041003#9" departLane="best" type="truck_truck"/>
    <trip id="truck142" depart="1033.85" from="693651825" to="691145137#19" departLane="best" type="truck_truck"/>
    <trip id="truck143" depart="1041.13" from="24024732#0" to="1409697574#1" departLane="best" type="truck_truck"/>
    <trip id="truck144" depart="1048.41" from="-691218156#8" to="51969608#1" departLane="best" type="truck_truck" departSpeed="max"/>
    <trip id="truck145" depart="1055.69" from="27083101#6" to="334057436#2" departLane="best" type="truck_truck"/>
    <trip id="truck146" depart="1062.97" from="-691218156#4" to="1410047966" departLane="best" type="truck_truck"/>
    <trip id="truck147" depart="1070.25" from="30992563#7" to="691145129#4" departLane="best" type="truck_truck"/>
    <trip id="truck148" depart="1077.53" from="1321447078#6" to="258025929#1" departLane="best" type="truck_truck"/>
    <trip id="truck149" depart="1084.81" from="1447089501#1" to="-30992559#2" departLane="best" type="truck_truck"/>
    <trip id="truck150" depart="1092.09" from="611632070#4" to="1427251649#2" departLane="best" type="truck_truck"/>
    <trip id="truck151" depart="1099.37" from="-24024778#6" to="208493039#13" departLane="best" type="truck_truck"/>
    <trip id="truck152" depart="1106.65" from="531179429" to="-24011166#6" departLane="best" type="truck_truck"/>
    <trip id="truck153" depart="1113.94" from="-24024732#0" to="23477160#2" departLane="best" type="truck_truck"/>
    <trip id="truck154" depart="1121.22" from="-227100661" to="288039682#4" departLane="best" type="truck_truck" departSpeed="max"/>
    <trip id="truck155" depart="1128.50" from="208520936#2" to="1334817306#0" departLane="best" type="truck_truck"/>
    <trip id="truck156" depart="1135.78" from="1222741597" to="912357110#1" departLane="best" type="truck_truck"/>
    <trip id="truck157" depart="1143.06" from="-531179425#0" to="183604223#0" departLane="best" type="truck_truck"/>
    <trip id="truck158" depart="1150.34" from="1187506597" to="88497548#3" departLane="best" type="truck_truck"/>
    <trip id="truck159" depart="1157.62" from="-912368455#2" to="-1087070301#1" departLane="best" type="truck_truck"/>
    <trip id="truck160" depart="1164.90" from="1222741583#1" to="1431718356#0" departLane="best" type="truck_truck"/>
    <trip id="truck161" depart="1172.18" from="27007139" to="23477160#3" departLane="best" type="truck_truck" departSpeed="max"/>
    <trip id="truck162" depart="1179.46" from="690187856#0" to="-343641304#1" departLane="best" type="truck_truck"/>
    <trip id="truck163" depart="1186.74" from="229862353#1" to="445143939#0" departLane="best" type="truck_truck"/>
    <trip id="truck164" depart="1194.02" from="690187856#18" to="385200734#4" departLane="best" type="truck_truck"/>
    <trip id="truck165" depart="1201.30" from="23978687#2" to="1207330011" departLane="best" type="truck_truck"/>
    <trip id="truck166" depart="1208.58" from="692514207#0" to="27083680#8" departLane="best" type="truck_truck"/>
    <trip id="truck167" depart="1215.86" from="1186969094#3" to="697666545#1" departLane="best" type="truck_truck"/>
    <trip id="truck168" depart="1223.14" from="682835983#11" to="911222968#7" departLane="best" type="truck_truck"/>
    <trip id="truck169" depart="1230.43" from="1146968967#1" to="1156527827" departLane="best" type="truck_truck"/>
    <trip id="truck170" depart="1237.71" from="912368453#1" to="-1222741590#3" departLane="best" type="truck_truck"/>
    <trip id="truck171" depart="1244.99" from="785750009#0" to="414781322#0" departLane="best" type="truck_truck"/>
    <trip id="truck172" depart="1252.27" from="-245951650#4" to="23477153#4" departLane="best" type="truck_truck"/>
    <trip id="truck173" depart="1259.55" from="-912358839#1" to="27108754#6" departLane="best" type="truck_truck"/>
    <trip id="truck174" depart="1266.83" from="691218154#0" to="275176286#2" departLane="best" type="truck_truck"/>
    <trip id="truck175" depart="1274.11" from="467058778#7" to="-53275456#5" departLane="best" type="truck_truck"/>
    <trip id="truck176" depart="1281.39" from="1365663499" to="1320158851#9" departLane="best" type="truck_truck"/>
    <trip id="truck177" depart="1288.67" from="697666545#2" to="-27280013#4" departLane="best" type="truck_truck"/>
    <trip id="truck178" depart="1295.95" from="257692802#0" to="24041003#13" departLane="best" type="truck_truck" departSpeed="max"/>
    <trip id="truck179" depart="1303.23" from="-693656419" to="693651833#8" departLane="best" type="truck_truck"/>
    <trip id="truck180" depart="1310.51" from="691143808#6" to="-405538068#0" departLane="best" type="truck_truck"/>
    <trip id="truck181" depart="1317.79" from="-685519837#1" to="23534965#5" departLane="best" type="truck_truck"/>
    <trip id="truck182" depart="1325.07" from="-210720209#1" to="-53278703#11" departLane="best" type="truck_truck" departSpeed="max"/>
    <trip id="truck183" depart="1332.35" from="-201526388#0" to="257692770#2" departLane="best" type="truck_truck"/>
    <trip id="truck184" depart="1339.63" from="1334817301" to="-1449304890#26" departLane="best" type="truck_truck"/>
    <trip id="truck185" depart="1346.92" from="466839422#3" to="1428337347#1" departLane="best" type="truck_truck"/>
    <trip id="truck186" depart="1354.20" from="23649211#6" to="-338675150#0" departLane="best" type="truck_truck"/>
    <trip id="truck187" depart="1361.48" from="24024777#0" to="-762215805#0" departLane="best" type="truck_truck"/>
    <trip id="truck188" depart="1368.76" from="914893644" to="-1396656199#2" departLane="best" type="truck_truck" departSpeed="max"/>
    <trip id="truck189" depart="1376.04" from="-1320017113" to="1123614685#1" departLane="best" type="truck_truck" departSpeed="max"/>
    <trip id="truck190" depart="1383.32" from="-216728662#5" to="-231175357#1" departLane="best" type="truck_truck"/>
    <trip id="truck191" depart="1390.60" from="27108752#4" to="1444285531#0" departLane="best" type="truck_truck"/>
    <trip id="truck192" depart="1397.88" from="24041003#11" to="-24040748#1" departLane="best" type="truck_truck"/>
    <trip id="truck193" depart="1405.16" from="-1414763099#1" to="-24040748#8" departLane="best" type="truck_truck"/>
    <trip id="truck194" depart="1412.44" from="1222882870#4" to="-693656419" departLane="best" type="truck_truck"/>
    <trip id="truck195" depart="1419.72" from="48795303#13" to="154454120#2" departLane="best" type="truck_truck"/>
    <trip id="truck196" depart="1427.00" from="124841590#1-AddedOffRampEdge" to="1123614726#1" departLane="best" type="truck_truck"/>
    <trip id="truck197" depart="1434.28" from="-24024746#2" to="-247610446#1" departLane="best" type="truck_truck"/>
    <trip id="truck198" depart="1441.56" from="-401358083#3" to="-1156003580" departLane="best" type="truck_truck"/>
    <trip id="truck199" depart="1448.84" from="-24024732#1" to="208514988#5" departLane="best" type="truck_truck"/>
    <trip id="truck200" depart="1456.12" from="137946507#4" to="1391190026" departLane="best" type="truck_truck"/>
    <trip id="truck201" depart="1463.41" from="1423481109#3" to="208472457#5" departLane="best" type="truck_truck"/>
    <trip id="truck202" depart="1470.69" from="98572426#2" to="1414763097#7" departLane="best" type="truck_truck"/>
    <trip id="truck203" depart="1477.97" from="385200734#12" to="1424832066#9" departLane="best" type="truck_truck"/>
    <trip id="truck204" depart="1485.25" from="53275456#5" to="88497026#3" departLane="best" type="truck_truck"/>
    <trip id="truck205" depart="1492.53" from="-253295665#1" to="690187856#20" departLane="best" type="truck_truck" departSpeed="max"/>
    <trip id="truck206" depart="1499.81" from="231174767#2" to="690187856#33" departLane="best" type="truck_truck"/>
    <trip id="truck207" depart="1507.09" from="-1320158817#1" to="467058778#13" departLane="best" type="truck_truck"/>
    <trip id="truck208" depart="1514.37" from="26993007#5" to="51969610#1" departLane="best" type="truck_truck"/>
    <trip id="truck209" depart="1521.65" from="-427629310#1" to="-692911407#0" departLane="best" type="truck_truck" departSpeed="max"/>
    <trip id="truck210" depart="1528.93" from="23534965#4" to="-911116547" departLane="best" type="truck_truck"/>
    <trip id="truck211" depart="1536.21" from="-911222968#7" to="925193172#6" departLane="best" type="truck_truck"/>
    <trip id="truck212" depart="1543.49" from="690187856#6" to="26993007#0" departLane="best" type="truck_truck"/>
    <trip id="truck213" depart="1550.77" from="228168650#1" to="691145129#14" departLane="best" type="truck_truck"/>
    <trip id="truck214" depart="1558.05" from="-691218156#4" to="216728662#0" departLane="best" type="truck_truck"/>
    <trip id="truck215" depart="1565.33" from="-1444285531#0" to="275457450#9" departLane="best" type="truck_truck"/>
    <trip id="truck216" depart="1572.61" from="-27108755" to="913751376" departLane="best" type="truck_truck" departSpeed="max"/>
    <trip id="truck217" depart="1579.90" from="208907445#3" to="-1320158851#8" departLane="best" type="truck_truck"/>
    <trip id="truck218" depart="1587.18" from="1414763096#1" to="-214215519#0" departLane="best" type="truck_truck"/>
    <trip id="truck219" depart="1594.46" from="-685519839#1" to="24024777#0" departLane="best" type="truck_truck"/>
    <trip id="truck220" depart="1601.74" from="-1414112453#1" to="42682320#1" departLane="best" type="truck_truck"/>
    <trip id="truck221" depart="1609.02" from="24039821#0" to="24039803#2" departLane="best" type="truck_truck" departSpeed="max"/>
    <trip id="truck222" depart="1616.30" from="1414763094#0" to="24024772#8" departLane="best" type="truck_truck"/>
    <trip id="truck223" depart="1623.58" from="753842900" to="23994018#5" departLane="best" type="truck_truck"/>
    <trip id="truck224" depart="1630.86" from="26993007#8" to="1312808648#3" departLane="best" type="truck_truck"/>
    <trip id="truck225" depart="1638.14" from="-275457450#12" to="1427251625#0" departLane="best" type="truck_truck"/>
    <trip id="truck226" depart="1645.42" from="693656427#0" to="1447089504" departLane="best" type="truck_truck"/>
    <trip id="truck227" depart="1652.70" from="-1334817305#2" to="23477160#18" departLane="best" type="truck_truck"/>
    <trip id="truck228" depart="1659.98" from="24025993#1" to="-24024732#8" departLane="best" type="truck_truck"/>
    <trip id="truck229" depart="1667.26" from="24011166#2" to="1427251602#0" departLane="best" type="truck_truck"/>
    <trip id="truck230" depart="1674.54" from="369599915#1" to="1391188974#1" departLane="best" type="truck_truck"/>
    <trip id="truck231" depart="1681.82" from="1222741583#2" to="1224005429#1" departLane="best" type="truck_truck"/>
    <trip id="truck232" depart="1689.10" from="690187856#15" to="920732520#0" departLane="best" type="truck_truck"/>
    <trip id="truck233" depart="1696.39" from="1409740328" to="-349962357#4" departLane="best" type="truck_truck"/>
    <trip id="truck234" depart="1703.67" from="26642644#3" to="-401358083#14" departLane="best" type="truck_truck"/>
    <trip id="truck235" depart="1710.95" from="690187856#21" to="-1450165106#7" departLane="best" type="truck_truck"/>
    <trip id="truck236" depart="1718.23" from="1085142671#0" to="691145136#9" departLane="best" type="truck_truck"/>
    <trip id="truck237" depart="1725.51" from="-1222882872#0" to="436865197#2" departLane="best" type="truck_truck"/>
    <trip id="truck238" depart="1732.79" from="208514994#1" to="257692780#2" departLane="best" type="truck_truck"/>
    <trip id="truck239" depart="1740.07" from="-1361117795#3" to="27083100#1" departLane="best" type="truck_truck"/>
    <trip id="truck240" depart="1747.35" from="762215805#0" to="-1214954363" departLane="best" type="truck_truck" departSpeed="max"/>
    <trip id="truck241" depart="1754.63" from="-287998030" to="414781322#16" departLane="best" type="truck_truck" departSpeed="max"/>
    <trip id="truck242" depart="1761.91" from="353278595#1" to="208514988#3" departLane="best" type="truck_truck"/>
    <trip id="truck243" depart="1769.19" from="697666545#1" to="202506787#1" departLane="best" type="truck_truck"/>
    <trip id="truck244" depart="1776.47" from="-275178109#1" to="37370130#4" departLane="best" type="truck_truck" departSpeed="max"/>