<?xml version="1.0" encoding="UTF-8"?>

<!-- generated on 2025-11-22 00:21:47.859405 by osmWebWizard.py v1_24_0+0000-b72eb3fabc8
<configuration>
    <net-file value="/home/yarl/Desktop/sumo/tools/2025-11-22-00-20-46/osm.net.xml.gz"/>
    <output-trip-file value="/home/yarl/Desktop/sumo/tools/2025-11-22-00-20-46/osm.passenger.trips.xml"/>
    <route-file value="/home/yarl/Desktop/sumo/tools/2025-11-22-00-20-46/osm.passenger.rou.xml"/>
    <prefix value="veh"/>
    <trip-attributes value="departLane=&quot;best&quot;"/>
    <fringe-start-attributes value="departSpeed=&quot;max&quot;"/>
    <vehicle-class value="passenger"/>
    <lanes value="True"/>
    <fringe-factor value="5"/>
    <allow-fringe.min-length value="1000.0"/>
    <edge-permission value="passenger"/>
    <via-edge-types value="highway.motorway,highway.motorway_link,highway.trunk_link,highway.primary_link,highway.secondary_link,highway.tertiary_link"/>
    <seed value="44"/>
    <min-distance value="300.0"/>
    <min-distance.fringe value="10.0"/>
    <remove-loops value="True"/>
    <insertion-density value="30.0"/>
</configuration>
-->

<routes xmlns:xsi="http://www.w3.org/2001/XMLSchema-instance" xsi:noNamespaceSchemaLocation="http://sumo.dlr.de/xsd/routes_file.xsd">
    <vType id="veh_passenger" vClass="passenger"/>
    <trip id="veh0" depart="0.00" from="1279020894#10" to="154454126#0" departLane="best" type="veh_passenger"/>
    <trip id="veh1" depart="0.24" from="638667395#1" to="-26642650#5" departLane="best" type="veh_passenger"/>
    <trip id="veh2" depart="0.49" from="-401358083#16" to="-1236756366" departLane="best" type="veh_passenger"/>
    <trip id="veh3" depart="0.73" from="-208514986#1" to="-1155278555#1" departLane="best" type="veh_passenger"/>
    <trip id="veh4" depart="0.97" from="-24039820#5" to="1427251601" departLane="best" type="veh_passenger"/>
    <trip id="veh5" depart="1.21" from="925184357" to="257692778#2" departLane="best" type="veh_passenger" departSpeed="max"/>
    <trip id="veh6" depart="1.46" from="1207330012#0" to="1300898059#2" departLane="best" type="veh_passenger" departSpeed="max"/>
    <trip id="veh7" depart="1.70" from="255775042#8" to="1106613146" departLane="best" type="veh_passenger"/>
    <trip id="veh8" depart="1.94" from="-1409740320" to="510754407#2" departLane="best" type="veh_passenger"/>
    <trip id="veh9" depart="2.18" from="228944248#10" to="-208514985#1" departLane="best" type="veh_passenger"/>
    <trip id="veh10" depart="2.43" from="-1409740307#0" to="-1446864466#0" departLane="best" type="veh_passenger"/>
    <trip id="veh11" depart="2.67" from="233042675#3" to="912368453#7" departLane="best" type="veh_passenger"/>
    <trip id="veh12" depart="2.91" from="1409697563#1" to="692910546#0" departLane="best" type="veh_passenger"/>
    <trip id="veh13" depart="3.15" from="-27108754#8" to="-691145130#1" departLane="best" type="veh_passenger" departSpeed="max"/>
    <trip id="veh14" depart="3.40" from="-531179424#0" to="-1342321804#0" departLane="best" type="veh_passenger"/>
    <trip id="veh15" depart="3.64" from="24040748#1" to="42682320#0" departLane="best" type="veh_passenger"/>
    <trip id="veh16" depart="3.88" from="1334817306#4" to="-1320158851#10" departLane="best" type="veh_passenger"/>
    <trip id="veh17" depart="4.13" from="257724951#1" to="27461423#0" departLane="best" type="veh_passenger"/>
    <trip id="veh18" depart="4.37" from="23979404#30" to="1115957142#5" departLane="best" type="veh_passenger"/>
    <trip id="veh19" depart="4.61" from="487759852#20" to="23477162#9" departLane="best" type="veh_passenger"/>
    <trip id="veh20" depart="4.85" from="214215519#2" to="154454106#1" departLane="best" type="veh_passenger"/>
    <trip id="veh21" depart="5.10" from="-414781322#9" to="1388681517#6" departLane="best" type="veh_passenger"/>
    <trip id="veh22" depart="5.34" from="385204712#4" to="255770433#1" departLane="best" type="veh_passenger"/>
    <trip id="veh23" depart="5.58" from="1123615318#0" to="445143939#1" departLane="best" type="veh_passenger"/>
    <trip id="veh24" depart="5.82" from="498583688#0" to="-1334817303#1" departLane="best" type="veh_passenger"/>
    <trip id="veh25" depart="6.07" from="-24040567#1" to="-466839422#0" departLane="best" type="veh_passenger"/>
    <trip id="veh26" depart="6.31" from="-1211482741#2" to="30992563#7" departLane="best" type="veh_passenger"/>
    <trip id="veh27" depart="6.55" from="23978687#2" to="154454126#2" departLane="best" type="veh_passenger"/>
    <trip id="veh28" depart="6.80" from="925193172#8" to="1185785538#5" departLane="best" type="veh_passenger"/>
    <trip id="veh29" depart="7.04" from="-292510790#3" to="-208493036#8" departLane="best" type="veh_passenger"/>
    <trip id="veh30" depart="7.28" from="1107026446#0" to="496426098#2" departLane="best" type="veh_passenger" departSpeed="max"/>
    <trip id="veh31" depart="7.52" from="228182096" to="-1391190025#0" departLane="best" type="veh_passenger" departSpeed="max"/>
    <trip id="veh32" depart="7.77" from="1334817299#2" to="-1341390068#0" departLane="best" type="veh_passenger"/>
    <trip id="veh33" depart="8.01" from="232389026#2" to="-228170093#1" departLane="best" type="veh_passenger"/>
    <trip id="veh34" depart="8.25" from="-26642644#17" to="23979403#2" departLane="best" type="veh_passenger"/>
    <trip id="veh35" depart="8.49" from="48795300#2" to="233042675#2" departLane="best" type="veh_passenger"/>
    <trip id="veh36" depart="8.74" from="-762215805#1" to="23979404#20" departLane="best" type="veh_passenger" departSpeed="max"/>
    <trip id="veh37" depart="8.98" from="-690355194#7" to="-1123614715" departLane="best" type="veh_passenger"/>
    <trip id="veh38" depart="9.22" from="-691145129#1" to="257692765#6" departLane="best" type="veh_passenger"/>
    <trip id="veh39" depart="9.46" from="233432897#3" to="-30992563#4" departLane="best" type="veh_passenger"/>
    <trip id="veh40" depart="9.71" from="498583688#3" to="487759852#25" departLane="best" type="veh_passenger"/>
    <trip id="veh41" depart="9.95" from="-691218156#2" to="912357110#1" departLane="best" type="veh_passenger"/>
    <trip id="veh42" depart="10.19" from="-652090756#0" to="-1409740300#0" departLane="best" type="veh_passenger"/>
    <trip id="veh43" depart="10.44" from="1422516716" to="638667788#3" departLane="best" type="veh_passenger"/>
    <trip id="veh44" depart="10.68" from="22576050#8" to="158804510#0" departLane="best" type="veh_passenger"/>
    <trip id="veh45" depart="10.92" from="1409740319" to="-88497548#6" departLane="best" type="veh_passenger"/>
    <trip id="veh46" depart="11.16" from="-88497549#0" to="1300897071#4" departLane="best" type="veh_passenger"/>
    <trip id="veh47" depart="11.41" from="1450165106#0" to="88496051#2" departLane="best" type="veh_passenger"/>
    <trip id="veh48" depart="11.65" from="-1409740315" to="-690187862#4" departLane="best" type="veh_passenger"/>
    <trip id="veh49" depart="11.89" from="88497549#3" to="24024772#1" departLane="best" type="veh_passenger"/>
    <trip id="veh50" depart="12.13" from="-1409740327" to="1361117795#5" departLane="best" type="veh_passenger"/>
    <trip id="veh51" depart="12.38" from="23979404#18" to="691218158#0" departLane="best" type="veh_passenger"/>
    <trip id="veh52" depart="12.62" from="-1416109091" to="691145131#5" departLane="best" type="veh_passenger"/>
    <trip id="veh53" depart="12.86" from="339883507#0" to="-778838005#4" departLane="best" type="veh_passenger"/>
    <trip id="veh54" depart="13.11" from="1430220070" to="467058778#8" departLane="best" type="veh_passenger"/>
    <trip id="veh55" depart="13.35" from="-50878504#8" to="257692802#9" departLane="best" type="veh_passenger"/>
    <trip id="veh56" depart="13.59" from="186752465#3" to="-1409740331" departLane="best" type="veh_passenger"/>
    <trip id="veh57" depart="13.83" from="-690355194#4" to="1320158831#2" departLane="best" type="veh_passenger"/>
    <trip id="veh58" depart="14.08" from="-23534970#1" to="88497026#3" departLane="best" type="veh_passenger"/>
    <trip id="veh59" depart="14.32" from="-53278703#0" to="-525940934#1" departLane="best" type="veh_passenger"/>
    <trip id="veh60" depart="14.56" from="22576050#3" to="1432213597#0" departLane="best" type="veh_passenger"/>
    <trip id="veh61" depart="14.80" from="-920727961#0" to="1106612203#1" departLane="best" type="veh_passenger"/>
    <trip id="veh62" depart="15.05" from="1412113040#1" to="691218154#0" departLane="best" type="veh_passenger"/>
    <trip id="veh63" depart="15.29" from="-1411061987#2" to="691218158#0" departLane="best" type="veh_passenger"/>
    <trip id="veh64" depart="15.53" from="40755919#4" to="1222882872#1" departLane="best" type="veh_passenger"/>
    <trip id="veh65" depart="15.77" from="912363096#2" to="275178402#2" departLane="best" type="veh_passenger"/>
    <trip id="veh66" depart="16.02" from="253478032#6" to="1374191445#3" departLane="best" type="veh_passenger"/>
    <trip id="veh67" depart="16.26" from="-38566687" to="257692772#3" departLane="best" type="veh_passenger" departSpeed="max"/>
    <trip id="veh68" depart="16.50" from="27064537#5" to="-1107026446#0" departLane="best" type="veh_passenger"/>
    <trip id="veh69" depart="16.75" from="-911227326#0" to="1449304890#15" departLane="best" type="veh_passenger"/>
    <trip id="veh70" depart="16.99" from="-339883507#1" to="-23477153#1" departLane="best" type="veh_passenger"/>
    <trip id="veh71" depart="17.23" from="-27108754#5" to="-1211482741#2" departLane="best" type="veh_passenger"/>
    <trip id="veh72" depart="17.47" from="-208520936#3" to="124482977#3" departLane="best" type="veh_passenger"/>
    <trip id="veh73" depart="17.72" from="1414763095#3" to="23650459#8" departLane="best" type="veh_passenger"/>
    <trip id="veh74" depart="17.96" from="-911222968#2" to="-233042675#1" departLane="best" type="veh_passenger"/>
    <trip id="veh75" depart="18.20" from="693651830#1" to="23534970#2" departLane="best" type="veh_passenger"/>
    <trip id="veh76" depart="18.44" from="24041344#14" to="257692769#1" departLane="best" type="veh_passenger"/>
    <trip id="veh77" depart="18.69" from="-925188163" to="22576050#8" departLane="best" type="veh_passenger"/>
    <trip id="veh78" depart="18.93" from="-920723063#4" to="24009355#2" departLane="best" type="veh_passenger"/>
    <trip id="veh79" depart="19.17" from="414781322#9" to="-1222741574#1" departLane="best" type="veh_passenger"/>
    <trip id="veh80" depart="19.41" from="38566870#4" to="-208907445#3" departLane="best" type="veh_passenger"/>
    <trip id="veh81" depart="19.66" from="-1222741583#13" to="-1410047972" departLane="best" type="veh_passenger"/>
    <trip id="veh82" depart="19.90" from="202361495#5" to="605261126#19" departLane="best" type="veh_passenger"/>
    <trip id="veh83" depart="20.14" from="693656429#0" to="-24041010#0" departLane="best" type="veh_passenger" departSpeed="max"/>
    <trip id="veh84" depart="20.39" from="1321447078#5" to="87741571#2" departLane="best" type="veh_passenger"/>
    <trip id="veh85" depart="20.63" from="690355170#1" to="487759852#12" departLane="best" type="veh_passenger"/>
    <trip id="veh86" depart="20.87" from="-531179424#1" to="-702593086#14" departLane="best" type="veh_passenger" departSpeed="max"/>
    <trip id="veh87" depart="21.11" from="-24011166#7" to="-691339338#4" departLane="best" type="veh_passenger"/>
    <trip id="veh88" depart="21.36" from="124482977#5" to="401358083#1" departLane="best" type="veh_passenger"/>
    <trip id="veh89" depart="21.60" from="23994018#3" to="-26540252#2" departLane="best" type="veh_passenger"/>
    <trip id="veh90" depart="21.84" from="-26642644#0" to="1374191445#5" departLane="best" type="veh_passenger"/>
    <trip id="veh91" depart="22.08" from="690355177#1" to="1409740303#1" departLane="best" type="veh_passenger"/>
    <trip id="veh92" depart="22.33" from="385200734#11" to="257692769#0" departLane="best" type="veh_passenger"/>
    <trip id="veh93" depart="22.57" from="690187849#1" to="1414834772#1" departLane="best" type="veh_passenger"/>
    <trip id="veh94" depart="22.81" from="1203301960#7" to="1389771155" departLane="best" type="veh_passenger"/>
    <trip id="veh95" depart="23.06" from="40755919#2" to="-778838005#4" departLane="best" type="veh_passenger"/>
    <trip id="veh96" depart="23.30" from="-275178109#1" to="48795303#7" departLane="best" type="veh_passenger" departSpeed="max"/>
    <trip id="veh97" depart="23.54" from="1409740299" to="23979402#2" departLane="best" type="veh_passenger"/>
    <trip id="veh98" depart="23.78" from="-258486981#1" to="-1326348755" departLane="best" type="veh_passenger" departSpeed="max"/>
    <trip id="veh99" depart="24.03" from="-401358083#16" to="1341390068#0" departLane="best" type="veh_passenger"/>
    <trip id="veh100" depart="24.27" from="-1292156359#1" to="-698441638#1" departLane="best" type="veh_passenger" departSpeed="max"/>
    <trip id="veh101" depart="24.51" from="88497548#6" to="1355096264#0" departLane="best" type="veh_passenger"/>
    <trip id="veh102" depart="24.75" from="-1113522074#0" to="40755919#5" departLane="best" type="veh_passenger"/>
    <trip id="veh103" depart="25.00" from="-911110558" to="-26642644#17" departLane="best" type="veh_passenger"/>
    <trip id="veh104" depart="25.24" from="23534970#2" to="24040599#1" departLane="best" type="veh_passenger"/>
    <trip id="veh105" depart="25.48" from="-928099276#10" to="258025938#1" departLane="best" type="veh_passenger"/>
    <trip id="veh106" depart="25.72" from="682835983#7" to="1155212166#2" departLane="best" type="veh_passenger"/>
    <trip id="veh107" depart="25.97" from="1413624406" to="-1107026446#1" departLane="best" type="veh_passenger"/>
    <trip id="veh108" depart="26.21" from="215136037#3" to="-911222968#1" departLane="best" type="veh_passenger"/>
    <trip id="veh109" depart="26.45" from="23979404#26" to="31518659" departLane="best" type="veh_passenger"/>
    <trip id="veh110" depart="26.70" from="1113522074#0" to="24041003#10" departLane="best" type="veh_passenger"/>
    <trip id="veh111" depart="26.94" from="88497548#3" to="-258487338#4" departLane="best" type="veh_passenger"/>
    <trip id="veh112" depart="27.18" from="401358083#13" to="1409740317#0" departLane="best" type="veh_passenger"/>
    <trip id="veh113" depart="27.42" from="88497549#4" to="-1409740331" departLane="best" type="veh_passenger"/>
    <trip id="veh114" depart="27.67" from="1222741574#1" to="-247610446#0" departLane="best" type="veh_passenger"/>
    <trip id="veh115" depart="27.91" from="-605261126#25" to="690355170#3-AddedOnRampEdge" departLane="best" type="veh_passenger"/>
    <trip id="veh116" depart="28.15" from="142747551#3" to="1186969094#1" departLane="best" type="veh_passenger"/>
    <trip id="veh117" depart="28.39" from="912363096#2" to="-1347340105" departLane="best" type="veh_passenger"/>
    <trip id="veh118" depart="28.64" from="-1222741584#1" to="338675151#0" departLane="best" type="veh_passenger"/>
    <trip id="veh119" depart="28.88" from="175953575#0" to="487759852#31" departLane="best" type="veh_passenger"/>
    <trip id="veh120" depart="29.12" from="1412113038" to="88497548#0" departLane="best" type="veh_passenger"/>
    <trip id="veh121" depart="29.37" from="1087070295#1" to="-510754411" departLane="best" type="veh_passenger"/>
    <trip id="veh122" depart="29.61" from="-124482978#4" to="-1156003581" departLane="best" type="veh_passenger"/>
    <trip id="veh123" depart="29.85" from="-1222741582#0" to="27083680#10" departLane="best" type="veh_passenger"/>
    <trip id="veh124" depart="30.09" from="23535107#17" to="-208514986#1" departLane="best" type="veh_passenger"/>
    <trip id="veh125" depart="30.34" from="394695278#0" to="353278597#7" departLane="best" type="veh_passenger"/>
    <trip id="veh126" depart="30.58" from="23477158#18" to="208907445#3" departLane="best" type="veh_passenger"/>
    <trip id="veh127" depart="30.82" from="1334817302#0" to="257692772#6" departLane="best" type="veh_passenger"/>
    <trip id="veh128" depart="31.06" from="1222741590#21" to="693656427#0" departLane="best" type="veh_passenger"/>
    <trip id="veh129" depart="31.31" from="215136037#1" to="242456045#2" departLane="best" type="veh_passenger"/>
    <trip id="veh130" depart="31.55" from="693656429#0" to="920690085#1" departLane="best" type="veh_passenger" departSpeed="max"/>
    <trip id="veh131" depart="31.79" from="1429761781#2" to="-208514985#5" departLane="best" type="veh_passenger"/>
    <trip id="veh132" depart="32.03" from="1427251618#2" to="692911407#3" departLane="best" type="veh_passenger"/>
    <trip id="veh133" depart="32.28" from="-31541469#6" to="-690355196#3" departLane="best" type="veh_passenger"/>
    <trip id="veh134" depart="32.52" from="-691145129#7" to="-527979094#2" departLane="best" type="veh_passenger"/>
    <trip id="veh135" depart="32.76" from="40943532#0" to="1449304890#15" departLane="best" type="veh_passenger" departSpeed="max"/>
    <trip id="veh136" depart="33.01" from="-1420130675" to="1424834371#5" departLane="best" type="veh_passenger"/>
    <trip id="veh137" depart="33.25" from="257692772#1" to="-1222882868#3" departLane="best" type="veh_passenger"/>
    <trip id="veh138" depart="33.49" from="-277028961#2" to="-1211482736#1" departLane="best" type="veh_passenger"/>
    <trip id="veh139" depart="33.73" from="257692772#1" to="1292156358#2" departLane="best" type="veh_passenger"/>
    <trip id="veh140" depart="33.98" from="-1211482736#5" to="-660403193" departLane="best" type="veh_passenger"/>
    <trip id="veh141" depart="34.22" from="-275176920#2" to="208514980#3" departLane="best" type="veh_passenger"/>
    <trip id="veh142" depart="34.46" from="1320158852#1" to="1326103722" departLane="best" type="veh_passenger"/>
    <trip id="veh143" depart="34.70" from="1084717829" to="-1320158851#9" departLane="best" type="veh_passenger"/>
    <trip id="veh144" depart="34.95" from="1433804585#0" to="222570183#2" departLane="best" type="veh_passenger"/>
    <trip id="veh145" depart="35.19" from="-24040756#2" to="-1334817299#2" departLane="best" type="veh_passenger"/>
    <trip id="veh146" depart="35.43" from="31541469#12" to="258487339#1" departLane="best" type="veh_passenger"/>
    <trip id="veh147" depart="35.68" from="23989764#2" to="912358838#4" departLane="best" type="veh_passenger"/>
    <trip id="veh148" depart="35.92" from="-911221033#2" to="27085834#3" departLane="best" type="veh_passenger"/>
    <trip id="veh149" depart="36.16" from="-698441638#1" to="228168651#12" departLane="best" type="veh_passenger"/>
    <trip id="veh150" depart="36.40" from="691215052#0" to="1388681517#6" departLane="best" type="veh_passenger"/>
    <trip id="veh151" depart="36.65" from="228767959#3" to="920731516#4" departLane="best" type="veh_passenger"/>
    <trip id="veh152" depart="36.89" from="1409740331" to="-554048065#0" departLane="best" type="veh_passenger"/>
    <trip id="veh153" depart="37.13" from="911222968#5" to="246762956#1" departLane="best" type="veh_passenger"/>
    <trip id="veh154" depart="37.37" from="-928099276#5" to="-702593086#2" departLane="best" type="veh_passenger"/>
    <trip id="veh155" depart="37.62" from="-1222741598#0" to="-1427251617#2" departLane="best" type="veh_passenger"/>
    <trip id="veh156" depart="37.86" from="920675374#8" to="208472460#3" departLane="best" type="veh_passenger"/>
    <trip id="veh157" depart="38.10" from="369599915#4" to="-605261126#1" departLane="best" type="veh_passenger"/>
    <trip id="veh158" depart="38.34" from="50878504#1" to="257724951#1" departLane="best" type="veh_passenger"/>
    <trip id="veh159" depart="38.59" from="682835983#6" to="1411061987#4" departLane="best" type="veh_passenger"/>
    <trip id="veh160" depart="38.83" from="693651829#1" to="208514980#3" departLane="best" type="veh_passenger"/>
    <trip id="veh161" depart="39.07" from="-23978687#2" to="691215052#3" departLane="best" type="veh_passenger"/>
    <trip id="veh162" depart="39.32" from="-911108694#0" to="693651833#4" departLane="best" type="veh_passenger"/>
    <trip id="veh163" depart="39.56" from="154454106#1" to="1292156358#2" departLane="best" type="veh_passenger"/>
    <trip id="veh164" depart="39.80" from="1424834371#0" to="1222741583#29" departLane="best" type="veh_passenger"/>
    <trip id="veh165" depart="40.04" from="-1410047979#1" to="-1334817307#3" departLane="best" type="veh_passenger"/>
    <trip id="veh166" depart="40.29" from="-1420130624#0" to="691145133#3" departLane="best" type="veh_passenger"/>
    <trip id="veh167" depart="40.53" from="1124080588#0" to="-1222741590#7" departLane="best" type="veh_passenger"/>
    <trip id="veh168" depart="40.77" from="1236757226#1" to="23649211#10" departLane="best" type="veh_passenger"/>
    <trip id="veh169" depart="41.01" from="23477160#20" to="692514190#0" departLane="best" type="veh_passenger"/>
    <trip id="veh170" depart="41.26" from="1146968966#1" to="911221184#0" departLane="best" type="veh_passenger"/>
    <trip id="veh171" depart="41.50" from="-1188022941#3" to="-24041344#12" departLane="best" type="veh_passenger"/>
    <trip id="veh172" depart="41.74" from="1409740333" to="23979404#26" departLane="best" type="veh_passenger"/>
    <trip id="veh173" depart="41.98" from="1312808647#1" to="384959687#3" departLane="best" type="veh_passenger"/>
    <trip id="veh174" depart="42.23" from="1449304890#7" to="-1019773232#0" departLane="best" type="veh_passenger"/>
    <trip id="veh175" depart="42.47" from="1222741600" to="23979402#17" departLane="best" type="veh_passenger"/>
    <trip id="veh176" depart="42.71" from="-605261126#20" to="-275457445#1" departLane="best" type="veh_passenger"/>
    <trip id="veh177" depart="42.96" from="23650459#6" to="1391190026" departLane="best" type="veh_passenger"/>
    <trip id="veh178" depart="43.20" from="920732520#0" to="911220199" departLane="best" type="veh_passenger"/>
    <trip id="veh179" depart="43.44" from="-911222968#0" to="-1292156358#3" departLane="best" type="veh_passenger"/>
    <trip id="veh180" depart="43.68" from="-26540248#2" to="1342321804#0" departLane="best" type="veh_passenger"/>
    <trip id="veh181" depart="43.93" from="1320158847#1" to="1342321803" departLane="best" type="veh_passenger"/>
    <trip id="veh182" depart="44.17" from="-1422516695#0" to="-912368454#2" departLane="best" type="veh_passenger"/>
    <trip id="veh183" depart="44.41" from="1279918870#0" to="313445159" departLane="best" type="veh_passenger"/>
    <trip id="veh184" depart="44.65" from="1208249027#6" to="353278597#2" departLane="best" type="veh_passenger"/>
    <trip id="veh185" depart="44.90" from="24041356#2" to="-30992560#5" departLane="best" type="veh_passenger"/>
    <trip id="veh186" depart="45.14" from="257692802#10" to="1211482741#2" departLane="best" type="veh_passenger"/>
    <trip id="veh187" depart="45.38" from="487759852#3" to="-1222741589#3" departLane="best" type="veh_passenger"/>
    <trip id="veh188" depart="45.63" from="-912357110#2" to="1427251626" departLane="best" type="veh_passenger"/>
    <trip id="veh189" depart="45.87" from="208493039#9" to="-553657158#1" departLane="best" type="veh_passenger"/>
    <trip id="veh190" depart="46.11" from="611632070#1" to="-88497549#6" departLane="best" type="veh_passenger"/>
    <trip id="veh191" depart="46.35" from="255775042#10" to="911230140#0" departLane="best" type="veh_passenger"/>
    <trip id="veh192" depart="46.60" from="-1447089500" to="682835983#6" departLane="best" type="veh_passenger"/>
    <trip id="veh193" depart="46.84" from="-258487338#2" to="1386573579#1" departLane="best" type="veh_passenger"/>
    <trip id="veh194" depart="47.08" from="-208514988#5" to="697105510#1" departLane="best" type="veh_passenger"/>
    <trip id="veh195" depart="47.32" from="-911225815#1" to="1427251608#0" departLane="best" type="veh_passenger"/>
    <trip id="veh196" depart="47.57" from="912374364#0" to="-24024746#4" departLane="best" type="veh_passenger"/>
    <trip id="veh197" depart="47.81" from="-1410047980" to="257692780#2" departLane="best" type="veh_passenger"/>
    <trip id="veh198" depart="48.05" from="-1334817306#5" to="-228767959#2" departLane="best" type="veh_passenger"/>
    <trip id="veh199" depart="48.29" from="-544489408#2" to="-1183628563#0" departLane="best" type="veh_passenger" departSpeed="max"/>
    <trip id="veh200" depart="48.54" from="1115957145#1" to="-1365663499" departLane="best" type="veh_passenger"/>
    <trip id="veh201" depart="48.78" from="702593086#2" to="1424834371#0" departLane="best" type="veh_passenger"/>
    <trip id="veh202" depart="49.02" from="-1272645241" to="30811921#1" departLane="best" type="veh_passenger"/>
    <trip id="veh203" depart="49.27" from="-466839422#7" to="690187856#0" departLane="best" type="veh_passenger"/>
    <trip id="veh204" depart="49.51" from="-1320017113" to="-228167145" departLane="best" type="veh_passenger" departSpeed="max"/>
    <trip id="veh205" depart="49.75" from="1186969093#1" to="466850669#0" departLane="best" type="veh_passenger"/>
    <trip id="veh206" depart="49.99" from="73053361#4" to="912363096#3" departLane="best" type="veh_passenger"/>
    <trip id="veh207" depart="50.24" from="-31511815#0" to="1222741583#27" departLane="best" type="veh_passenger"/>
    <trip id="veh208" depart="50.48" from="548024820#0" to="40943669#2" departLane="best" type="veh_passenger"/>
    <trip id="veh209" depart="50.72" from="87741571#3" to="-1416109091" departLane="best" type="veh_passenger"/>
    <trip id="veh210" depart="50.96" from="-1320158849#1" to="1300897071#14" departLane="best" type="veh_passenger"/>
    <trip id="veh211" depart="51.21" from="51979958#0" to="257692765#6" departLane="best" type="veh_passenger"/>
    <trip id="veh212" depart="51.45" from="1300898059#2" to="255768618#4" departLane="best" type="veh_passenger"/>
    <trip id="veh213" depart="51.69" from="-697105512" to="30992560#5" departLane="best" type="veh_passenger" departSpeed="max"/>
    <trip id="veh214" depart="51.94" from="-24024772#7" to="22576030#10" departLane="best" type="veh_passenger"/>
    <trip id="veh215" depart="52.18" from="-912357110#1" to="1146968967#3" departLane="best" type="veh_passenger"/>
    <trip id="veh216" depart="52.42" from="-685519839#1" to="-124482979#2" departLane="best" type="veh_passenger"/>
    <trip id="veh217" depart="52.66" from="-1430348661" to="24041344#4" departLane="best" type="veh_passenger"/>
    <trip id="veh218" depart="52.91" from="1326348755" to="22576030#2" departLane="best" type="veh_passenger"/>
    <trip id="veh219" depart="53.15" from="38566693#1" to="920723141#1" departLane="best" type="veh_passenger"/>
    <trip id="veh220" depart="53.39" from="1222882860#7" to="295089210#1" departLane="best" type="veh_passenger"/>
    <trip id="veh221" depart="53.63" from="24039803#2" to="-517244042#2" departLane="best" type="veh_passenger"/>
    <trip id="veh222" depart="53.88" from="40943532#0" to="208472461#3" departLane="best" type="veh_passenger" departSpeed="max"/>
    <trip id="veh223" depart="54.12" from="27108752#0" to="287994386" departLane="best" type="veh_passenger"/>
    <trip id="veh224" depart="54.36" from="-31541469#12" to="-1409740324#0" departLane="best" type="veh_passenger"/>
    <trip id="veh225" depart="54.60" from="384959682" to="24040756#1" departLane="best" type="veh_passenger"/>
    <trip id="veh226" depart="54.85" from="-1222741583#20" to="-1334817309" departLane="best" type="veh_passenger"/>
    <trip id="veh227" depart="55.09" from="1320158831#2" to="23994018#6" departLane="best" type="veh_passenger"/>
    <trip id="veh228" depart="55.33" from="-214215519#2" to="257692795#1" departLane="best" type="veh_passenger"/>
    <trip id="veh229" depart="55.58" from="1122250663" to="23979404#36" departLane="best" type="veh_passenger"/>
    <trip id="veh230" depart="55.82" from="-690355196#5" to="-53275456#6" departLane="best" type="veh_passenger"/>
    <trip id="veh231" depart="56.06" from="-24011130#1" to="257692765#1" departLane="best" type="veh_passenger"/>
    <trip id="veh232" depart="56.30" from="232389026#0" to="-1409740310#0" departLane="best" type="veh_passenger"/>
    <trip id="veh233" depart="56.55" from="-208136417#3" to="48795303#12" departLane="best" type="veh_passenger"/>
    <trip id="veh234" depart="56.79" from="-611632070#4" to="697105512" departLane="best" type="veh_passenger"/>
    <trip id="veh235" depart="57.03" from="920675374#0" to="40941250#9" departLane="best" type="veh_passenger"/>
    <trip id="veh236" depart="57.27" from="-23477162#7" to="-171895227" departLane="best" type="veh_passenger"/>
    <trip id="veh237" depart="57.52" from="487759852#17" to="1320158851#9" departLane="best" type="veh_passenger"/>
    <trip id="veh238" depart="57.76" from="-1292156358#0" to="-171900795" departLane="best" type="veh_passenger"/>
    <trip id="veh239" depart="58.00" from="-1320158831#1" to="26642644#4" departLane="best" type="veh_passenger"/>
    <trip id="veh240" depart="58.24" from="-1365663500#3" to="-911113666" departLane="best" type="veh_passenger"/>
    <trip id="veh241" depart="58.49" from="257692772#6" to="30811922" departLane="best" type="veh_passenger"/>
    <trip id="veh242" depart="58.73" from="385200734#5" to="-539985277#0" departLane="best" type="veh_passenger"/>
    <trip id="veh243" depart="58.97" from="-255768618#4" to="233432897#0" departLane="best" type="veh_passenger" departSpeed="max"/>
    <trip id="veh244" depart="59.22" from="40755926#4" to="27461423#1" departLane="best" type="veh_passenger"/>
    <trip id="veh245" depart="59.46" from="27085834#3" to="1320158849#0" departLane="best" type="veh_passenger"/>
    <trip id="veh246" depart="59.70" from="258025932#1" to="691218153#0" departLane="best" type="veh_passenger"/>
    <trip id="veh247" depart="59.94" from="228944248#0" to="-24011166#8" departLane="best" type="veh_passenger"/>