<?xml version="1.0" encoding="UTF-8"?>

<!-- generated on 2025-11-22 18:05:50.683002 by randomTrips.py v1_24_0+0000-b72eb3fabc8
<configuration>
    <net-file value="/home/yarl/Desktop/git/Urban/data/network.net.xml"/>
    <route-file value="/home/yarl/Desktop/git/Urban/data/routes.rou.xml"/>
</configuration>
-->

<!-- generated on 2025-11-22 18:05:48 by Eclipse SUMO duarouter Version 1.24.0
<duarouterConfiguration xmlns:xsi="http://www.w3.org/2001/XMLSchema-instance" xsi:noNamespaceSchemaLocation="http://sumo.dlr.de/xsd/duarouterConfiguration.xsd">

    <input>
        <net-file value="/home/yarl/Desktop/git/Urban/data/network.net.xml"/>
        <route-files value="trips.trips.xml"/>
    </input>

    <output>
        <output-file value="/home/yarl/Desktop/git/Urban/data/routes.rou.xml"/>
        <alternatives-output value="NUL"/>
    </output>

    <time>
        <begin value="0"/>
        <end value="3600.0"/>
    </time>

    <report>
        <no-warnings value="true"/>
        <ignore-errors value="true"/>
        <no-step-log value="true"/>
    </report>

</duarouterConfiguration>
-->

<routes xmlns:xsi="http://www.w3.org/2001/XMLSchema-instance" xsi:noNamespaceSchemaLocation="http://sumo.dlr.de/xsd/routes_file.xsd">
    <vehicle id="0" depart="0.00">
        <route edges="23477158#4 23477158#5 925193172#6 925193172#7 1300897071#14 1300897071#15 48795303#10 48795303#11 48795303#12 48795303#13 48795303#14 48795303#15 1414834772#0 1414834772#1 1414834772#2 1414834772#3 1414834769 1222741589#0 1222741589#1 1222741589#2 1222741589#3 1222741593 -1222741593 -1222741589#3 -1222741589#2 -1222741589#1"/>
    </vehicle>
    <vehicle id="1" depart="1.00">
        <route edges="-51969503#3 -51969503#2 -51969610#2 -51969610#1 -51969610#0 215136037#3 215136037#4 -968690108 1158223067#4 30801022 23994003#0 23994003#1 253478032#0 253478032#1 253478032#2 253478032#3 253478032#4 253478032#5 253478032#6 253478032#7 253478032#8 253478032#9 1155212166#0 1155212166#1 1155212166#2 1155212166#3 1155212166#4 638667788#0 638667788#1 638667788#2 638667788#3 638667788#4 638667788#5 1279918870#0 1279918870#1 638668069#0 638668069#1 690355175 690355173 690355177#0 690355177#1 690355177#2 1198271307#0 1198271307#1 214215470#0 214215470#1 214215470#2 214215470#3 214215470#4 385204709 385204710#0 385204710#1 385204710#2 385204710#3 1388681519#0 1388681519#1 1388681523#0 1388681523#1 1388681523#2 1388681523#3 1388681520#0 1388681520#1 1388681520#2 1427251601 1427251608#0 1427251608#1 -1427251618#3 -1427251618#2 -1427251618#1 -1427251618#0 -1427251602#1 -1427251602#0 1427251622#0 1427251622#1 -1427251626 -1427251637#2 -1427251637#1 -1427251637#0 -690355194#8 -690355194#7 -690355194#6 -690355194#5 -690355194#4 -690355194#3 -690355194#2 605261126#7 605261126#8 605261126#9 605261126#10 605261126#11 605261126#12 605261126#13 605261126#14 605261126#15 605261126#16 605261126#17 605261126#18 605261126#19 605261126#20 605261126#21 605261126#22 605261126#23 605261126#24 605261126#25 605261126#26 22576050#0 22576050#1 22576050#2 22576050#3 22576050#4 22576050#5 22576050#6 22576050#7 22576050#8 22576050#9 40755921 40755923#0 40755923#1 40755923#2 40755923#3 40755923#4 40755923#5 40755923#6 40755923#7 40755923#8 40755923#9 40755923#10 -228767959#4 -228767959#3 -228767959#2 -228767959#1 -228767959#0 -228767499 -154454106#2 -154454106#1 -154454106#0 -1416109081 -1341390068#1 -1341390068#0 -208514986#4 -208514986#3 -208514986#2 -208514986#1 -208514986#0 693651827#0 693651827#1 693651827#2 1437043831 1437043833 693651825 -314480719#13 -314480719#12 -314480719#11 -314480719#10 -314480719#9 -314480719#8 -314480719#7 30992560#0 30992560#1 30992560#2 30992560#3 -30992560#3"/>
    </vehicle>
    <vehicle id="2" depart="2.00">
        <route edges="26902000#18 26902000#19 26902000#20 26902000#21 26902000#22 26902000#23 26902000#24 26902000#25 26902000#26 26902000#27 1279135747 214215470#3 214215470#4 385204709 385204710#0 385204710#1 385204710#2 385204710#3 1388681519#0 1388681519#1 1388681523#0 1388681523#1 1388681523#2 1388681523#3 1388681520#0 1388681520#1 1388681520#2 1427251601 1427251608#0 1427251608#1 -1427251618#3 -1427251618#2 -1427251618#1 -1427251618#0 -24024777#15 -24024777#14 -24024777#13 -24024777#12 -24024777#11 24024777#11 24024777#12 24024777#13"/>
    </vehicle>
    <vehicle id="3" depart="3.00">
        <route edges="690187864#8 -690187864#8 1222741583#18 1222741583#19 1222741583#20 1222741583#21 380361483#0 380361483#1 1334817302#0 1334817302#1 1151502640#0 1151502640#1 1151502640#2 1235109780#0 1235109780#1 1235109780#2 257692765#0 257692765#1 257692765#2 257692765#3 257692765#4 257692765#5 257692765#6 258025939#0 258025939#1 258025939#2 384959688#0 384959688#1 48795301 1341390075#0 1341390075#1 1374191445#0 1374191445#1 1374191445#2 1374191445#3 1374191445#4 1374191445#5 228767495#0 228767495#1 228767495#2 228767495#3 228767495#4 228767495#5 228767495#6 228767495#7 228767495#8 1390634521#0 1390634521#1 -1347340114#1 -1347340114#0 -1422516702"/>
    </vehicle>
    <vehicle id="4" depart="4.00">
        <route edges="1222741583#27 -1222741583#27 -1222741583#26 -1222741583#25 -1222741583#24 -1222741583#23 -1222741583#22 380361483#0 380361483#1 1334817302#0 1334817302#1 498038801 1334817311 1312808648#0 1312808648#1 1312808648#2 1312808648#3 1312808648#4 1334817309 1334817310#0 1334817310#1 1334817310#2 1334817310#3 1334817313 1334817312 1334817308 1334817307#0 1334817307#1 1334817307#2 1334817307#3 1334817306#0 1334817306#1 1334817306#2 1334817306#3 1334817306#4 1334817306#5 1334817306#6 1334817305#0 1388681517#5 1388681517#6 690355189#0 690355189#1 690355189#2 690355185 1431718357 1431718356#0 1431718356#1 1431718356#2 1431718356#3 1431718356#4 690355178#0 690355178#1 690355178#2 690355178#3 680224749#0 680224749#1 680224749#2 680224749#3 214215519#0 214215519#1 214215519#2 1222741596 1222741597 1222741598#0 1222741598#1 1222741599#0 1222741599#1 1222741600 1222741601 928110051 928109628 -928109628 -928110051 -1222741601 -1222741600"/>
    </vehicle>
    <vehicle id="5" depart="5.00">
        <route edges="-275457450#7 -275457450#6 -275457450#5 -275457450#4 -275457450#3 -275457450#2 -275457450#1 -275457450#0 690355170#4 690355170#5 690355167 638667850#0 638667850#1 40943669#0 40943669#1 214215443#0 214215443#1 257692795#0 257692795#1 257692795#2 257692795#3 257692795#4 257692795#5 257692795#6 257692795#7 257692795#8 257692795#9 257692795#10 353278596 257692799#0 257692799#1 1429761781#0 1429761781#1 1429761781#2 1429761781#3 1429761781#4 1409740317#0 1409740317#1 1409740317#2 1409740317#3 -1409740315 1409740315"/>
    </vehicle>
    <vehicle id="6" depart="6.00">
        <route edges="-1222741590#2 -1222741590#1 -1222741590#0 -663149775 -1414834771 1414834769 1222741589#0 1222741589#1 1222741589#2 1222741589#3 1222741593 1198271307#0 1198271307#1 214215470#0 214215470#1 214215470#2 214215470#3 214215470#4 385204709 385204710#0 385204710#1 385204710#2 385204710#3 1388681519#0 1388681519#1 1388681523#0 1388681523#1 1388681523#2 1388681523#3 1388681520#0 1388681520#1 1388681520#2 1427251601 1427251608#0 1427251608#1 -1427251618#3 -1427251618#2 -1427251618#1 -1427251618#0 -1427251602#1 -1427251602#0 1427251622#0 1427251622#1 -1427251626 -1427251637#2 -1427251637#1 -1427251637#0 -690355194#8 -690355194#7 -690355194#6 -690355194#5 -690355194#4 -690355194#3 -690355194#2 -605261126#6 -605261126#5 -605261126#4 -605261126#3 -216728662#1 -216728662#0 -24041886 -26642646#1 -26642646#0 -26642645#4 -26642645#3 -26642645#2"/>
    </vehicle>
    <vehicle id="7" depart="7.00">
        <route edges="23535107#6 23535107#7 682835983#5 682835983#6 682835983#7 682835983#8 682835983#9 682835983#10 682835983#11 682835983#12 682835983#13 1414763096#0 1414763096#1 1414763096#2 40755919#0 40755919#1 40755919#2 40755919#3 40755919#4 40755919#5 40755916 208472461#0 208472461#1 208472461#2 208472461#3 208472461#4 208472461#5 208472461#6 -605261126#22 -605261126#21 -605261126#20 -605261126#19 -605261126#18 -605261126#17 -605261126#16 -605261126#15 -605261126#14 -605261126#13 -605261126#12 -605261126#11 -605261126#10 -605261126#9 -605261126#8 -605261126#7 690355194#2 690355194#3 690355194#4 690355194#5 690355194#6 690355194#7 690355194#8 1427251637#0 1427251637#1 1427251637#2 1427251626 1427251625#0 1427251625#1 1427251602#0 1427251602#1 1427251618#0 1427251618#1 1427251618#2 1427251618#3 1388681517#0 1388681517#1 1388681517#2 1388681517#3 1388681517#4 1388681517#5 1388681517#6 690355189#0 690355189#1 690355189#2 690355185 1431718357"/>
    </vehicle>
    <vehicle id="8" depart="8.00">
        <route edges="-288039682#11 -288039682#10 -288039682#9 -288039682#8 -288039682#7 -288039682#6 -288039682#5 -288039682#4 -288039682#3 -288039682#2 -288039682#1 -288039682#0 -1320158852#2 -1320158852#1 -1320158852#0 401358083#0 401358083#1 401358083#2 401358083#3 401358083#4 401358083#5 401358083#6 401358083#7 401358083#8 401358083#9 401358083#10 401358083#11 401358083#12 401358083#13 401358083#14 401358083#15 401358083#16 401358083#17 1409740296#0 1409740296#1 30811921#0 30811921#1 30811921#2 630928098 630928102#0 630928102#1 228464626#0 228464626#1 548024820#0 548024820#1 1447089501#0 1447089501#1 1447089499 384959685 1447089500 125617974 1447089496 125617976 1447089503 -1447089504 -31541492 -605261126#26 -605261126#25 -605261126#24 -605261126#23 -605261126#22 -605261126#21 -605261126#20 -605261126#19 -605261126#18 40755936#8 40755936#9 40755936#10 40755936#11 40755936#12 40755935 1414763094#0 -208514985#13 -208514985#12 -208514985#11 -208514985#10 208514985#10 208514985#11"/>
    </vehicle>
    <vehicle id="9" depart="9.00">
        <route edges="401358083#4 401358083#5 401358083#6 401358083#7 401358083#8 401358083#9 401358083#10 1334817300#0 1334817300#1 1334817300#2 1320158849#0 1320158849#1 1320158849#2 1334817303#0 1334817303#1 1334817301 380361483#0 380361483#1 1334817302#0 1334817302#1 498038801 1334817311 1312808648#0 1312808648#1 1312808648#2 1312808648#3 1312808648#4 1334817309 1334817310#0 1334817310#1 1334817310#2 1334817310#3 1334817313 1334817312 1334817308 1334817307#0 1334817307#1 1334817307#2 1334817307#3 1334817306#0 1203301959#0 1203301959#1 1203301959#2 1203301959#3 1203301959#4 1203301959#5 1203301959#6 1203301959#7 48795303#0 48795303#1 48795303#2 48795303#3 48795303#4 48795303#5 48795303#6 48795303#7 48795303#8 48795303#9 48795303#10 48795303#11 48795303#12 48795303#13 48795303#14 48795303#15 1414834772#0 1414834772#1 1414834772#2 1414834772#3 1414834771 663149775 1222741590#0 1222741590#1 1222741590#2 1222741590#3 1222741590#4 1222741590#5 1222741590#6 1222741590#7 1222741590#8 1222741590#9 1222741590#10 1222741590#11 1222741590#12 1222741590#13 1222741590#14 1222741590#15 1222741590#16 1222741590#17 1222741590#18 1222741590#19 1222741590#20 1222741590#21 1222741590#22 1222741590#23 -1123614686#1 -1123614686#0 -1123614684"/>
    </vehicle>
    <vehicle id="10" depart="10.00">
        <route edges="38566870#1 26902000#21 26902000#22 26902000#23 26902000#24 26902000#25 26902000#26 26902000#27 1279135747 214215470#3 214215470#4 385204709 385204710#0 385204710#1 385204710#2 385204710#3 1388681519#0 1388681519#1 1388681523#0 1388681523#1 1388681523#2 1388681523#3 -1334817306#6 -1334817306#5 -1334817306#4 -1334817306#3 -1334817306#2 -1334817306#1 -1334817306#0 -1334817307#3 -1334817307#2 -1334817307#1 -1334817307#0 -1334817308 -1334817312 -1334817313 -1334817310#3 -1334817310#2 -1334817310#1 -1334817310#0 -1334817309 -1312808648#4 -1312808648#3 -1312808648#2 -1312808648#1 -1312808648#0 -1334817311 -498038801 -1334817302#1 -1334817302#0 -380361483#1 -380361483#0 -1334817301 -1334817303#1 -1334817303#0 -1409740300#1 -1409740300#0 -1409740299 -23978205#4 246762956#0 246762956#1"/>
    </vehicle>
    <vehicle id="11" depart="11.00">
        <route edges="-88497548#4 -527979089 925185053 1222741574#0 1222741574#1 1222741581 1222741580#0 1222741580#1 925186169 925186170 925186272#0 925186272#1 1222741584#0 1222741584#1 1222741584#2 925188161#0 925188161#1 257692778#0 257692778#1 257692778#2 257692778#3 1103849645 1103849646#0 1103849646#1 257692770#0 257692770#1 257692770#2 257692770#3 928099279#0 928099279#1 257692780#0 257692780#1 257692780#2 257692780#3 1151502640#0 1151502640#1 1151502640#2 1235109780#0 1235109780#1 1235109780#2 257692765#0 257692765#1 257692765#2 257692765#3 257692765#4 257692765#5 257692765#6 258025939#0 258025939#1 30908884 1447089500 125617974 1447089496 125617976 1447089503 -1447089504 -31541492 -605261126#26 -605261126#25 -605261126#24 -605261126#23 -605261126#22 -605261126#21 -605261126#20 -605261126#19 -605261126#18 40755936#8 40755936#9 40755936#10 40755936#11 40755936#12 40755935 1414763094#0 1414763094#1 1414763094#2 1414763094#3 1414763094#4 1414763094#5 27064537#0 27064537#1 -23979402#9 -23979402#8 -23979402#7 -23979402#6 -23979402#5"/>
    </vehicle>
    <vehicle id="12" depart="12.00">
        <route edges="911109625 171895862 1430220647 432527892 692911407#0 692911407#1 692911407#2 692911407#3 692911407#4 692911407#5 -432526768 -446465458 432526769 498583688#0 498583688#1 498583688#2 498583688#3 233298643#0 233298643#1 232472316#0 911110044#5 1409697570#0 1409697570#1 1361117795#0 1361117795#1 1361117795#2 1361117795#3 1361117795#4 1361117795#5 1361117795#6 -539985282#1 -539985282#0 -539985286#1 -539985286#0 -1409697562 -1409697563#1 -1409697563#0 -1409697565 -1409697571#1 -1409697571#0 -539985277#2 -539985277#1 -539985277#0 -1409697567 -1416109091 -1409697574#1 -1409697574#0 -1355096267#2 -1355096267#1 -1355096267#0 -228464702#5 -228464702#4 -228464702#3 -228464702#2 -228464702#1 -228464702#0 -1409697568#2 -1409697568#1 -1409697568#0 -1409697569 -48795298 -48795300#2 -48795300#1 -48795300#0 -42642191 691218155#0 691218155#1 691218155#2 30908770 30811923 694772681 536676593 1432213595 1432213597#0 1432213597#1 1432213597#2 23978205#0 23978205#1 23978205#2 23978205#3 23978205#4 1409740299 1409740300#0 1409740300#1 228470346#0 228470346#1 228470346#2 1409740301#0 1409740301#1 1409740302 1409740303#0 1409740303#1 1409740303#2 1409740304#0 1409740304#1 1409740304#2 1409740304#3 1409740305#0 1409740305#1 1409740306#0 1409740306#1 1409740307#0 1409740307#1 228168651#8 228168651#9 228168651#10 -88497549#7 -88497549#6 -88497549#5 -88497549#4 -88497549#3 -88497549#2 -88497549#1 -88497548#2"/>
    </vehicle>
    <vehicle id="13" depart="13.00">
        <route edges="-1427251649#0 1427251650#0 1427251650#1 1427251650#2 1427251650#3 1356123647#0 1356123647#1 1356123647#2 1356123647#3 1356123647#4 1356123647#5 1427251645#0 1427251645#1 690355198 690355197 690355194#0 690355194#1 690355194#2 690355194#3 690355194#4 690355194#5 690355194#6 690355194#7 690355194#8 1427251637#0 1427251637#1 1427251637#2 1427251626 1427251625#0 1427251625#1 1427251602#0 1427251602#1 1427251618#0 1427251618#1 1427251618#2 1427251618#3 1388681517#0 1388681517#1 1388681517#2 1388681517#3 1388681517#4 1388681517#5 1388681517#6 690355189#0 690355189#1 690355189#2 690355185 1431718357 1431718356#0 1431718356#1 1431718356#2 1431718356#3 1431718356#4 690355178#0 690355178#1 690355178#2 690355178#3 680224749#0 680224749#1 680224749#2 680224749#3 690355170#0 690355170#1 690355170#2 690355170#3 690355170#4 690355170#5 690355167 638667850#0 638667850#1 40943669#0 40943669#1 40943669#2 40943669#3 40943669#4 23477154#7 1444285532 1444285531#0 1444285531#1 -1444285531#1"/>
    </vehicle>
    <vehicle id="14" depart="14.00">
        <route edges="51969503#0 51969503#1 -51969610#2 -51969610#1 -51969610#0 215136037#3 215136037#4 -968690108 1158223067#4 30801022 23994003#0 23994003#1 -536797263 253478033#0 253478033#1 215136024 215136037#0 215136037#1 215136037#2"/>
    </vehicle>
    <vehicle id="15" depart="15.00">
        <route edges="394695278#0 394695278#1 394695278#2 394695278#3 394695278#4 912374363#0 912374363#1 912374363#2 912374363#3 912374606#0 912374606#1 912374606#2 912374606#3 1347340104#0 1347340104#1 682835984#0 682835984#1 682835984#2 1447625125 1422516696 1422516695#0 1422516695#1 258487338#0 258487338#1 258487338#2 258487338#3 258487338#4 258487338#5 258487338#6 258487338#7 1146968966#0 1146968966#1 1449304898 1449304897#0 1449304897#1 -1450165106#8 -1450165106#7 -1450165106#6 -1450165106#5 -1450165106#4 -1450165106#3 -1450165106#2 -1450165106#1 -1450165106#0 -1450165110 -690355200 690355199#0 690355199#1 1211482741#0 1211482741#1 1211482741#2 1427251650#0 1427251650#1 385200732#5 385200732#6 385200732#7 385200732#8 385200732#9 385200732#10 1449304890#21 1449304890#22 1449304890#23 1449304890#24 1449304890#25 1449304890#26 1449304890#27 1449304890#28 1449304890#29 1449304890#30 1449304890#31 26642646#2 26642646#3 26642646#4"/>
    </vehicle>
    <vehicle id="16" depart="16.00">
        <route edges="1424920393#2 691145130#0 691145130#1 691145130#2 691145130#3 691145130#4 691145130#5 911227326#0 911227326#1 911227003 911226159#0 911226159#1 911225815#0 911225815#1 911225815#2 533334595#0 533334595#1 23989757#0 23989757#1 23989757#2 23989757#3 228768119#0 228768119#1 257724952#0 257724952#1 257724952#2 257724952#3 257724952#4 257724952#5 912368455#0 912368455#1 912368455#2 912368455#3 912368454#0 912368454#1 912368454#2 912368454#3 1123881600#0 1123881600#1 1123881600#2 912363096#0 912363096#1"/>
    </vehicle>
    <vehicle id="17" depart="17.00">
        <route edges="1103848386#3 1103848386#4 1103849646#0 1103849646#1 257692770#0 257692770#1 257692770#2 257692770#3 928099279#0 928099279#1 257692780#0 257692780#1 257692780#2 257692780#3 1151502640#0 1151502640#1 1151502640#2 1235109780#0 1235109780#1 1235109780#2 257692765#0 257692765#1 257692765#2 257692765#3 257692765#4 257692765#5 257692765#6 258025939#0 258025939#1 30908884 1447089500 125617974 1447089496 125617976 1447089503 -1447089504 -31541492 -605261126#26 -605261126#25 -605261126#24 -605261126#23 -605261126#22 -605261126#21 -605261126#20 -605261126#19 -605261126#18 40755936#8 40755936#9 40755936#10 40755936#11 40755936#12 40755935 1414763094#0 1414763094#1 1414763094#2 1414763094#3 1414763094#4 1414763094#5 27064537#0 27064537#1 27064537#2 27064537#3 27064537#4 27064537#5 27064537#6 1414763095#0 1414763095#1 1414763095#2 1414763095#3 1414763095#4 1414763095#5 27262213#0 27262213#1 27262213#2 27262213#3 23535107#11 23535107#12 23535107#13 23535107#14 23535107#15 23535107#16 23535107#17 23535107#18 1447621300#0"/>
    </vehicle>
    <vehicle id="18" depart="18.00">
        <route edges="455739176#2 455739176#3 455739176#4 455739176#5 455739176#6 691145136#0 691145136#1 691145136#2 691145136#3 691145136#4 27085834#0 27085834#1 27085834#2 27085834#3 27085834#4 27085834#5 27085834#6 27085834#7 23989757#2 23989757#3 228768119#0 228768119#1 1355884276#0 1355884276#1 257724951#0 257724951#1 257724951#2 257724951#3 385200734#0 385200734#1 385200734#2 385200734#3 385200734#4 385200734#5 385200734#6 385200734#7 385200734#8 385200734#9 385200734#10 385200734#11 385200734#12 -228767499 -154454106#2 -154454106#1 -154454106#0 -1416109081 -1341390068#1 -1341390068#0 -208514986#4 -208514986#3 -208514986#2 -208514986#1 -208514986#0 693651827#0 693651827#1 693651827#2 1437043831 1437043832 228464700#0 228464700#1 228464700#2 228464700#3"/>
    </vehicle>
    <vehicle id="19" depart="19.00">
        <route edges="544059267#4 1312808647#7 1312808647#8 1312808647#9 1312808647#10 1312808647#11 1312808647#12 208493035#0 208493035#1 40755936#0 40755936#1 40755936#2 40755936#3 40755936#4 40755936#5 40755936#6 40755936#7 -605261126#17 -605261126#16 -605261126#15 -605261126#14 -605261126#13 -605261126#12 -605261126#11 -605261126#10 -605261126#9 -605261126#8 -605261126#7 -690355194#1 -690355194#0 -690355197 -690355198 -1427251645#1 -1427251645#0 -1356123647#5 -1356123647#4 -1356123647#3 -1356123647#2 -1356123647#1 -1356123647#0 -1427251650#3 -1427251650#2 -1427251650#1 -1427251650#0 -1211482741#2 -1211482741#1 -1211482741#0 -690355199#1 -690355199#0 690355200 1450165110 1450165106#0 1450165106#1 1450165106#2 1450165106#3 1450165106#4 1450165106#5 1450165106#6 1450165106#7 1450165106#8 258487339#0 258487339#1 258487339#2 1342321806 1342321805 1342321803 1342321804#0 1342321804#1 1342321804#2 1342321804#3 1342321804#4 1342321804#5 1342321804#6 1342321804#7 1342321804#8 1342321804#9 1342321804#10 1342321804#11 912357111#0 912357111#1 510754411 1233264332#0 1233264332#1 510754407#0 510754407#1 510754407#2 1393496321#0 1393496321#1 257724387#0 257724387#1 257724387#2 257724387#3 257724387#4 257724387#5 257724387#6 257724387#7 257724387#8 257724387#9 920722761#0 920722761#1 1396148980#0 1396148980#1 1396148980#2 1396148980#3 1396148980#4 1396148980#5 1044662053 1044663634 1044662052 496426098#0 496426098#1 496426098#2 1420130624#0 1420130624#1 -1420130631#1 -1420130631#0 -1420130632 -1420130675 -1420130674 -693656417#1 -693656417#0 -208136417#7 -208136417#6 -208136417#5 -208136417#4 -208136417#3 -208136417#2 -208136417#1 -208136417#0 208136417#0 208136417#1 208136417#2"/>
    </vehicle>
    <vehicle id="20" depart="20.00">
        <route edges="253478033#1 215136024 215136037#0 215136037#1 215136037#2 215136037#3 215136037#4 -968690108 1158223067#4 30801022 23994003#0 23994003#1 253478032#0 253478032#1 253478032#2 253478032#3 253478032#4 253478032#5 253478032#6 253478032#7 253478032#8 253478032#9 1155212166#0 1155212166#1 1155212166#2 1155212166#3 1155212166#4 638667788#0 638667788#1 638667788#2 638667788#3 1444285532 1444285531#0 1444285531#1 1444285531#2 1320158832#0 1320158832#1 -1320158832#1 -1320158832#0"/>
    </vehicle>
    <vehicle id="21" depart="21.00">
        <route edges="-310725797#0 912358838#4 912358838#5 912358838#6 1186969094#0 1186969094#1 1186969094#2 1186969094#3 1342321796#0 1342321796#1 1342321796#2 1342321796#3 -258487338#7 -258487338#6 -258487338#5 -258487338#4 -258487338#3 -258487338#2 -258487338#1 -258487338#0 -1422516695#1 -1422516695#0 -1422516696 -1447625125 -682835984#2 -682835984#1 -682835984#0 -1347340104#1 -1347340104#0 682835983#0 682835983#1 682835983#2 682835983#3 682835983#4 682835983#5 682835983#6 682835983#7 682835983#8 682835983#9 682835983#10 682835983#11 682835983#12 682835983#13 1414763096#0 1414763096#1 1414763096#2 40755919#0 40755919#1 40755919#2 40755919#3 40755919#4 40755919#5 40755916 208472461#0 208472461#1 208472461#2 208472461#3 208472461#4 208472461#5 208472461#6 605261126#23 605261126#24 605261126#25 605261126#26 -605261126#26 -605261126#25"/>
    </vehicle>
    <vehicle id="22" depart="22.00">
        <route edges="-1412113036#11 -1412113036#10 -1412113036#9 -1412113036#8 -1412113036#7 -1412113036#6 -1412113036#5 -1412113036#4 -1412113036#3 -1412113036#2 -1412113036#1 -1412113036#0 -53279867#5 693656416#4 693656416#5 693656416#6 693656416#7 693656416#8 -911230140#1 -911230140#0 -911230567 -533944576#1 -533944576#0 -1396148980#5 -1396148980#4 -1396148980#3 -1396148980#2 -1396148980#1 -1396148980#0 -920722761#1 -920722761#0 -257724387#9 -257724387#8 -257724387#7 -257724387#6 -257724387#5 -257724387#4 -257724387#3 -257724387#2 -257724387#1 -257724387#0 -1393496321#1 -1393496321#0 -510754407#2 -510754407#1 -510754407#0 -1233264332#1 -1233264332#0 -510754411 -912357111#1 -912357111#0 -1342321804#11 -1342321804#10 -1342321804#9 -1342321804#8 -1342321804#7 -1342321804#6 -1342321804#5 -1342321804#4 -1342321804#3 -1342321804#2 -1342321804#1 -1342321804#0 -1342321803 -1342321805 -1342321806 -258487339#2 -258487339#1 -258487339#0 -1450165106#8 -1450165106#7 -1450165106#6 -1450165106#5 -1450165106#4 -1450165106#3 -1450165106#2 -1450165106#1 -1450165106#0 -1450165110 -690355200 690355199#0 690355199#1 1211482741#0 1211482741#1 1211482741#2 1427251650#0 1427251650#1 1427251650#2 1427251650#3 1356123647#0 1356123647#1 1356123647#2 1356123647#3 1356123647#4 1356123647#5 1427251645#0 1427251645#1 690355198 690355197 690355194#0 690355194#1 690355194#2 690355194#3 690355194#4 690355194#5 690355194#6 690355194#7 690355194#8 1427251637#0 1427251637#1 1427251637#2 1427251626 1427251625#0 1427251625#1 1427251602#0 1427251602#1 1427251618#0 1427251618#1 1427251618#2 1427251618#3 1388681517#0 1388681517#1 1388681517#2 1388681517#3 1388681517#4 1388681517#5 1388681517#6 690355189#0 690355189#1 690355189#2 690355185 -1356310021 -928099276#18 -928099276#17 -928099276#16 -31541469#5 -31541469#4 -31541469#3"/>
    </vehicle>
    <vehicle id="23" depart="23.00">
        <route edges="-1449304890#14 -1211482736#3 -1211482736#2 -1211482736#1 -1211482736#0 -690355199#1 -690355199#0 690355200 1450165110 1450165106#0 1450165106#1 1450165106#2 1450165106#3 1450165106#4 1450165106#5 1450165106#6 1450165106#7 1450165106#8 258487339#0 258487339#1 258487339#2 1342321806 1342321805 1342321803 1342321804#0 1342321804#1 487759852#6 487759852#7 487759852#8 487759852#9 487759852#10 487759852#11 487759852#12 487759852#13 487759852#14 487759852#15 487759852#16 487759852#17 487759852#18 487759852#19 487759852#20 487759852#21 487759852#22 487759852#23 487759852#24 487759852#25 487759852#26 912374364#4 912374364#5 912374364#6 -53275456#6 -53275456#5 -53275456#4"/>
    </vehicle>
    <vehicle id="24" depart="24.00">
        <route edges="23477153#5 -23477153#5 -23477153#4 -23477153#3 -23477153#2 -23477153#1 -23477153#0 -1019773232#1 -1019773232#0 -1087070295#1 -1087070295#0 -353278598#1 -353278598#0 -353278594 -23978687#3 -23978687#2 -23978687#1 -23978687#0 -1409740321#1 -1409740321#0 228167146#0 228167146#1 228167146#2 228167146#3 1409740324#0 1409740324#1 1106613146 1409740327 1342506334 1409740329 1409740328 228167144 1009487434#0 1009487434#1 697105506#0 697105506#1 697105506#2 697105506#3 969999631 -969999632#3 -969999632#2 -969999632#1"/>
    </vehicle>
    <vehicle id="25" depart="25.00">
        <route edges="103840645#1 103840645#2 103840645#3 -1222741598#1 -1222741598#0 -1222741597 -1222741596 -214215519#2 -214215519#1 -214215519#0 -1198271306 1198271307#0 1198271307#1 214215470#0 214215470#1 214215470#2 214215470#3 214215470#4 385204709 385204710#0 385204710#1 385204710#2 385204710#3 1388681519#0 1388681519#1 1388681523#0 1388681523#1 1388681523#2 1388681523#3 1388681520#0 1388681520#1 1388681520#2 1427251601 1427251608#0 1427251608#1 -1427251618#3 -1427251618#2 -1427251618#1 -1427251618#0 -1427251602#1 -1427251602#0 1427251622#0 1427251622#1 -1427251626 -1427251637#2 -1427251637#1 -1427251637#0 -690355194#8 -690355194#7 -690355194#6 -690355194#5 -690355194#4 -690355194#3 -690355194#2 -605261126#6 -605261126#5 -605261126#4 -605261126#3 -216728662#1 -216728662#0 -24041886 -1449304890#31 -1449304890#30 -1449304890#29 -1449304890#28 -1449304890#27 -1449304890#26 -1449304890#25 27108754#3 27108754#4 27108754#5 27108754#6 27108754#7 27108754#8 -27108754#8 -27108754#7 -27108754#6 -27108754#5 -27108754#4"/>
    </vehicle>
    <vehicle id="26" depart="26.00">
        <route edges="-466839422#9 -466839422#8 -466839422#7 -466839422#6 -466839422#5 -466839422#4 -466839422#3 -466839422#2 -466839422#1 -466839422#0 -245293583#1 -245293583#0 257692778#2 257692778#3 1103849645 1103849646#0 1103849646#1 257692770#0 257692770#1 257692770#2 257692770#3 928099279#0 928099279#1 257692780#0 257692780#1 257692780#2 257692780#3 1151502640#0 1151502640#1 1151502640#2 1235109780#0 1235109780#1 1235109780#2 257692765#0 257692765#1 257692765#2 257692765#3 257692765#4 257692765#5 257692765#6 258025939#0 258025939#1 258025939#2 384959688#0 384959688#1 48795301 1341390075#0 1341390075#1 1374191445#0 1374191445#1 1374191445#2 1374191445#3 1374191445#4 1374191445#5 228767495#0 228767495#1 228767495#2 228767495#3 228767495#4 228767495#5 228767495#6 228767495#7 228767495#8 1390634521#0 1390634521#1 228767496#0 228767496#1 228767496#2 258025926#0 258025926#1 229862353#0 229862353#1 258025938#0 258025938#1 258025938#2 1326103707#0 1326103707#1 1326103707#2 912369915 258025929#0 258025929#1 258025929#2 171895222#0 171895222#1 258025932#0 258025932#1 258025924#0 258025924#1 207810531#0 207810531#1 911222968#0 911222968#1 911222968#2 911222968#3 911222968#4 911222968#5 911222968#6 911222968#7 911222968#8 911222968#9 694772680#0"/>
    </vehicle>
    <vehicle id="27" depart="27.00">
        <route edges="23535107#10 -23535107#10 -23535107#9 -23535107#8 682835983#5 682835983#6 682835983#7 682835983#8 682835983#9 682835983#10 682835983#11 682835983#12 682835983#13 1414763096#0 1414763096#1 1414763096#2 40755919#0 40755919#1 40755919#2 40755919#3 40755919#4 40755919#5 40755916 208472461#0 208472461#1 208472461#2 208472461#3 208472461#4 208472461#5 208472461#6 605261126#23 605261126#24 605261126#25 605261126#26 31541492 1447089504 30908893#0 30908893#1 30908893#2 1235109779#1 1235109779#2 1235109779#3 1235109779#4 1235109779#5 1235109779#6 1355938165 384959687#0 384959687#1 384959687#2 384959687#3 384959687#4 1300898059#0 1300898059#1 1300898059#2 1300898059#3 1300898059#4 1300898059#5 928099277#0 928099277#1 928099277#2 928099277#3 1300897071#0 1300897071#1 1300897071#2 1300897071#3 1300897071#4 1300897071#5 22576030#8 22576030#9 22576030#10 22576030#11 22576030#12 22576030#13"/>
    </vehicle>
    <vehicle id="28" depart="28.00">
        <route edges="-24039803#10 -24039803#9 -24039803#8 -24039803#7 -24039803#6 -24039803#5 -24039803#4 -24039803#3 -24039803#2 -24039803#1 -24039803#0 691218155#0 691218155#1 228464623#0 228464623#1 228464623#2 228464623#3 228464623#4 228464623#5 228464623#6 1447089501#0 1447089501#1 1447089499 384959685 1447089500 125617974 1447089496 125617976 1447089503 -1447089504 -31541492 -605261126#26 -605261126#25 -605261126#24 -605261126#23 -605261126#22 -605261126#21 -605261126#20 -605261126#19 -605261126#18 -605261126#17 -605261126#16 -605261126#15 -605261126#14 -605261126#13 -605261126#12 -605261126#11 -605261126#10 -605261126#9 -605261126#8 -605261126#7 -605261126#6 -605261126#5 -605261126#4 -605261126#3 -216728662#1 -216728662#0 -24041886 -26642646#1 -26642646#0 -26642645#4 -26642645#3 26642645#3 26642645#4 26642646#0"/>
    </vehicle>
    <vehicle id="29" depart="29.00">